5819
 OpenBabel06212614533D

 35 36  0  0  1  0  0  0  0  0999 V2000
    3.8314   -4.1291   -6.3118 I   0  0  0  0  0  0  0  0  0  0  0  0
    3.9698   -9.3352   -2.9775 I   0  0  0  0  0  0  0  0  0  0  0  0
    7.1867   -8.4796   -9.8926 I   0  0  0  0  0  0  0  0  0  0  0  0
    9.0540   -4.3640   -5.7845 I   0  0  0  0  0  0  0  0  0  0  0  0
    4.5032   -7.3769   -5.4352 O   0  0  0  0  0  0  0  0  0  0  0  0
    3.8989   -3.7670    1.5180 O   0  0  0  0  0  0  0  0  0  0  0  0
    4.4886   -5.7711    0.6282 O   0  0  0  0  0  0  0  0  0  0  0  0
    8.9735   -6.1651   -8.4675 O   0  0  0  0  0  0  0  0  0  0  0  0
    1.3838   -4.0589    1.1963 N   0  0  0  0  0  0  0  0  0  0  0  0
    2.1422   -4.4139   -1.1416 C   0  0  0  0  0  0  0  0  0  0  0  0
    2.2056   -4.9389    0.3027 C   0  0  1  0  0  0  0  0  0  0  0  0
    2.8456   -5.2033   -2.2275 C   0  0  0  0  0  0  0  0  0  0  0  0
    3.0895   -6.5770   -2.1455 C   0  0  0  0  0  0  0  0  0  0  0  0
    3.1708   -4.5439   -3.4235 C   0  0  0  0  0  0  0  0  0  0  0  0
    4.0320   -6.5981   -4.4046 C   0  0  0  0  0  0  0  0  0  0  0  0
    3.7150   -5.2361   -4.5177 C   0  0  0  0  0  0  0  0  0  0  0  0
    3.6896   -7.2610   -3.2157 C   0  0  0  0  0  0  0  0  0  0  0  0
    3.6559   -4.9052    0.8171 C   0  0  0  0  0  0  0  0  0  0  0  0
    5.6959   -7.0884   -6.0597 C   0  0  0  0  0  0  0  0  0  0  0  0
    6.6682   -6.1970   -5.6035 C   0  0  0  0  0  0  0  0  0  0  0  0
    5.8785   -7.7534   -7.2767 C   0  0  0  0  0  0  0  0  0  0  0  0
    6.9863   -7.4674   -8.0750 C   0  0  0  0  0  0  0  0  0  0  0  0
    7.7527   -5.8739   -6.4293 C   0  0  0  0  0  0  0  0  0  0  0  0
    7.9147   -6.5050   -7.6679 C   0  0  0  0  0  0  0  0  0  0  0  0
    2.5415   -3.3897   -1.1546 H   0  0  0  0  0  0  0  0  0  0  0  0
    1.0880   -4.3444   -1.4441 H   0  0  0  0  0  0  0  0  0  0  0  0
    1.8174   -5.9578    0.3964 H   0  0  0  0  0  0  0  0  0  0  0  0
    2.8136   -7.1345   -1.2539 H   0  0  0  0  0  0  0  0  0  0  0  0
    2.9551   -3.4796   -3.5127 H   0  0  0  0  0  0  0  0  0  0  0  0
    1.3222   -4.5178    2.1130 H   0  0  0  0  0  0  0  0  0  0  0  0
    0.4197   -4.0677    0.8502 H   0  0  0  0  0  0  0  0  0  0  0  0
    6.5622   -5.7078   -4.6400 H   0  0  0  0  0  0  0  0  0  0  0  0
    5.1308   -8.4752   -7.5986 H   0  0  0  0  0  0  0  0  0  0  0  0
    3.0464   -3.2691    1.5546 H   0  0  0  0  0  0  0  0  0  0  0  0
    8.9206   -6.6984   -9.2804 H   0  0  0  0  0  0  0  0  0  0  0  0
  1 16  1  0  0  0  0
  2 17  1  0  0  0  0
  3 22  1  0  0  0  0
  4 23  1  0  0  0  0
  5 15  1  0  0  0  0
  5 19  1  0  0  0  0
  6 18  1  0  0  0  0
  6 34  1  0  0  0  0
  7 18  2  0  0  0  0
  8 24  1  0  0  0  0
  8 35  1  0  0  0  0
  9 30  1  0  0  0  0
  9 31  1  0  0  0  0
 10 12  1  0  0  0  0
 10 25  1  0  0  0  0
 10 26  1  0  0  0  0
 11 18  1  0  0  0  0
 11 27  1  1  0  0  0
 11 10  1  0  0  0  0
 11  9  1  0  0  0  0
 12 13  2  0  0  0  0
 12 14  1  0  0  0  0
 13 17  1  0  0  0  0
 13 28  1  0  0  0  0
 14 16  2  0  0  0  0
 14 29  1  0  0  0  0
 15 16  1  0  0  0  0
 15 17  2  0  0  0  0
 19 20  2  0  0  0  0
 19 21  1  0  0  0  0
 20 23  1  0  0  0  0
 20 32  1  0  0  0  0
 21 22  2  0  0  0  0
 21 33  1  0  0  0  0
 22 24  1  0  0  0  0
 23 24  2  0  0  0  0
M  END
>  <PUBCHEM_COMPOUND_CID>
5819

>  <PUBCHEM_CONFORMER_RMSD>
0.8

>  <PUBCHEM_CONFORMER_DIVERSEORDER>
1
7
14
22
4
5
20
21
11
9
16
12
10
2
19
23
17
13
6
15
18
8
3

>  <PUBCHEM_MMFF94_PARTIAL_CHARGES>
32
1 -0.08
10 0.14
11 0.33
12 -0.14
13 -0.15
14 -0.15
15 0.08
16 0.08
17 0.08
18 0.66
19 0.08
2 -0.08
20 -0.15
21 -0.15
22 0.08
23 0.08
24 0.08
28 0.15
29 0.15
3 -0.08
30 0.36
31 0.36
32 0.15
33 0.15
34 0.5
35 0.45
4 -0.08
5 -0.17
6 -0.65
7 -0.57
8 -0.53
9 -0.99

>  <PUBCHEM_EFFECTIVE_ROTOR_COUNT>
5

>  <PUBCHEM_PHARMACOPHORE_FEATURES>
13
1 1 hydrophobe
1 2 hydrophobe
1 3 hydrophobe
1 4 hydrophobe
1 5 acceptor
1 6 acceptor
1 7 acceptor
1 8 donor
1 9 cation
1 9 donor
3 6 7 18 anion
6 12 13 14 15 16 17 rings
6 19 20 21 22 23 24 rings

>  <PUBCHEM_HEAVY_ATOM_COUNT>
24

>  <PUBCHEM_ATOM_DEF_STEREO_COUNT>
1

>  <PUBCHEM_ATOM_UDEF_STEREO_COUNT>
0

>  <PUBCHEM_BOND_DEF_STEREO_COUNT>
0

>  <PUBCHEM_BOND_UDEF_STEREO_COUNT>
0

>  <PUBCHEM_ISOTOPIC_ATOM_COUNT>
0

>  <PUBCHEM_COMPONENT_COUNT>
1

>  <PUBCHEM_CACTVS_TAUTO_COUNT>
2

>  <PUBCHEM_CONFORMER_ID>
000016BB00000001

>  <PUBCHEM_MMFF94_ENERGY>
69.0987

>  <PUBCHEM_FEATURE_SELFOVERLAP>
66.029

>  <PUBCHEM_SHAPE_FINGERPRINT>
10006869 2 17972020454231449901
10165383 225 17821449036861445606
11763715 3 17399250023354042990
12236239 1 17275107258428813414
12596602 18 15575007199035956725
12633257 1 17532081877360907868
12788726 201 18340488838556113552
13103583 49 14562539453318960509
13149001 5 14763768871103977471
13402501 40 18410011026814479673
13544653 18 10953457423204011331
13583140 156 18341904021015457815
14178342 30 17313115167698377131
14279260 333 18267584616480956702
14466204 15 18410004417175816040
14739800 52 18189041024129029577
14790565 3 17476075104970475696
15209294 21 18040434369766669999
15238133 3 18335707169802945492
15295992 7 18336552736593030810
15475509 84 17393590398934442025
19930381 70 16540721743423659219
20511986 3 17274528937129973730
20723712 36 16950291693107653143
20739085 24 16733550386173254683
21033648 29 17967251983981360665
21279426 13 18411422804598024524
21475661 188 18408880758920368945
21709351 56 18059853999527796454
23227448 37 18342173418791402519
23402539 116 13686303469704314790
23419403 2 15232405212402377215
2838139 119 18202561757112565429
3633792 109 16056052246871964262
392239 28 18115322171491007707
4325135 7 17989207058514870511
469060 322 16038016270257117290
5081480 168 16627182489199555045
57724786 102 18190180268948023868
5895379 119 17626098646792586137
5951187 136 17262998057784145413
59755656 520 18186519920997011938
633830 44 18335411413822767622
9981440 41 16905225185956029032

>  <PUBCHEM_SHAPE_MULTIPOLES>
513.19
11.91
3.12
2.21
1
1.93
-1.06
6.08
0.27
0.34
1.7
-0.58
-1.26
1.12

>  <PUBCHEM_SHAPE_SELFOVERLAP>
1008.297

>  <PUBCHEM_SHAPE_VOLUME>
318.8

>  <PUBCHEM_COORDINATE_TYPE>
2
5
10

>  <Energy>
96.3414

$$$$
