5460197
  -OEChem-06212602493D

 29 28  0     1  0  0  0  0  0999 V2000
    2.8649   -1.1792    0.8576 O   0  0  0  0  0  0  0  0  0  0  0  0
   -3.7253    0.9626    1.1734 O   0  5  0  0  0  0  0  0  0  0  0  0
   -4.8741    1.0705   -0.7969 O   0  0  0  0  0  0  0  0  0  0  0  0
    3.9242    1.7336    0.4854 N   0  0  0  0  0  0  0  0  0  0  0  0
    0.1822   -0.8012    0.1047 C   0  0  0  0  0  0  0  0  0  0  0  0
   -1.2080   -0.3812   -0.3826 C   0  0  0  0  0  0  0  0  0  0  0  0
    1.2915    0.0768   -0.4736 C   0  0  0  0  0  0  0  0  0  0  0  0
   -2.2951   -1.2937    0.1890 C   0  0  0  0  0  0  0  0  0  0  0  0
    2.6813   -0.2690    0.0489 C   0  0  0  0  0  0  0  0  0  0  0  0
    3.8257    0.6110   -0.4411 C   0  0  2  0  0  0  0  0  0  0  0  0
   -3.6785   -0.8957   -0.3161 C   0  0  0  0  0  0  0  0  0  0  0  0
    5.1432   -0.1514   -0.5143 C   0  0  0  0  0  0  0  0  0  0  0  0
   -4.1320    0.5170    0.0656 C   0  0  0  0  0  0  0  0  0  0  0  0
    0.2122   -0.7535    1.2006 H   0  0  0  0  0  0  0  0  0  0  0  0
    0.3690   -1.8475   -0.1675 H   0  0  0  0  0  0  0  0  0  0  0  0
   -1.3847    0.6607   -0.0940 H   0  0  0  0  0  0  0  0  0  0  0  0
   -1.2358   -0.4206   -1.4784 H   0  0  0  0  0  0  0  0  0  0  0  0
    1.3099   -0.0249   -1.5645 H   0  0  0  0  0  0  0  0  0  0  0  0
    1.0906    1.1254   -0.2280 H   0  0  0  0  0  0  0  0  0  0  0  0
   -2.2697   -1.2588    1.2848 H   0  0  0  0  0  0  0  0  0  0  0  0
   -2.0960   -2.3321   -0.1021 H   0  0  0  0  0  0  0  0  0  0  0  0
    3.5808    0.9788   -1.4434 H   0  0  0  0  0  0  0  0  0  0  0  0
   -4.4211   -1.5929    0.0904 H   0  0  0  0  0  0  0  0  0  0  0  0
   -3.7084   -1.0006   -1.4079 H   0  0  0  0  0  0  0  0  0  0  0  0
    5.4510   -0.5285    0.4678 H   0  0  0  0  0  0  0  0  0  0  0  0
    5.9453    0.4887   -0.8974 H   0  0  0  0  0  0  0  0  0  0  0  0
    5.0505   -1.0155   -1.1813 H   0  0  0  0  0  0  0  0  0  0  0  0
    4.1240    1.3977    1.4266 H   0  0  0  0  0  0  0  0  0  0  0  0
    3.0372    2.2324    0.5333 H   0  0  0  0  0  0  0  0  0  0  0  0
  1  9  2  0  0  0  0
  2 13  1  0  0  0  0
  3 13  2  0  0  0  0
  4 10  1  0  0  0  0
  4 28  1  0  0  0  0
  4 29  1  0  0  0  0
  5  6  1  0  0  0  0
  5  7  1  0  0  0  0
  5 14  1  0  0  0  0
  5 15  1  0  0  0  0
  6  8  1  0  0  0  0
  6 16  1  0  0  0  0
  6 17  1  0  0  0  0
  7  9  1  0  0  0  0
  7 18  1  0  0  0  0
  7 19  1  0  0  0  0
  8 11  1  0  0  0  0
  8 20  1  0  0  0  0
  8 21  1  0  0  0  0
  9 10  1  0  0  0  0
 10 12  1  0  0  0  0
 10 22  1  0  0  0  0
 11 13  1  0  0  0  0
 11 23  1  0  0  0  0
 11 24  1  0  0  0  0
 12 25  1  0  0  0  0
 12 26  1  0  0  0  0
 12 27  1  0  0  0  0
M  CHG  1   2  -1
M  END
> <PUBCHEM_COMPOUND_CID>
5460197

> <PUBCHEM_CONFORMER_RMSD>
0.8

> <PUBCHEM_CONFORMER_DIVERSEORDER>
1
179
14
243
89
271
245
177
276
2
156
215
103
268
7
176
159
191
16
11
277
109
136
227
270
40
263
10
273
31
267
8
196
223
154
275
108
29
88
114
264
56
220
193
225
233
23
256
115
274
18
112
24
134
132
185
226
202
12
34
244
9
254
169
200
46
210
123
239
116
190
100
85
33
102
251
224
174
161
13
205
199
279
65
21
58
81
266
107
197
246
162
122
250
39
5
278
149
92
257
70
272
175
234
172
63
232
137
212
20
77
43
87
206
228
240
249
186
178
237
150
110
255
236
71
79
221
183
118
106
259
4
59
213
64
281
124
147
265
15
17
219
163
28
54
164
155
141
269
104
204
170
6
189
182
253
143
208
37
50
93
84
260
97
94
218
62
247
105
74
98
258
67
144
128
151
44
201
248
57
78
131
242
49
216
26
135
22
209
35
261
181
167
168
69
148
30
90
217
111
280
146
76
125
262
47
192
86
238
194
211
160
32
27
25
207
139
126
51
3
252
60
140
61
120
165
68
214
75
19
96
241
158
133
113
83
235
55
91
101
187
195
42
73
153
38
117
127
138
171
282
45
157
82
119
145
203
52
41
188
231
48
129
198
99
66
173
80
230
222
229
72
184
95
166
53
36
152
142
180
121
130

> <PUBCHEM_MMFF94_PARTIAL_CHARGES>
11
1 -0.57
10 0.33
11 -0.11
13 0.91
2 -0.9
28 0.36
29 0.36
3 -0.9
4 -0.99
7 0.06
9 0.45

> <PUBCHEM_EFFECTIVE_ROTOR_COUNT>
7

> <PUBCHEM_PHARMACOPHORE_FEATURES>
7
1 1 acceptor
1 2 acceptor
1 3 acceptor
1 4 cation
1 4 donor
3 2 3 13 anion
5 5 6 7 8 11 hydrophobe

> <PUBCHEM_HEAVY_ATOM_COUNT>
13

> <PUBCHEM_ATOM_DEF_STEREO_COUNT>
0

> <PUBCHEM_ATOM_UDEF_STEREO_COUNT>
1

> <PUBCHEM_BOND_DEF_STEREO_COUNT>
0

> <PUBCHEM_BOND_UDEF_STEREO_COUNT>
0

> <PUBCHEM_ISOTOPIC_ATOM_COUNT>
0

> <PUBCHEM_COMPONENT_COUNT>
1

> <PUBCHEM_CACTVS_TAUTO_COUNT>
5

> <PUBCHEM_CONFORMER_ID>
005350E500000001

> <PUBCHEM_MMFF94_ENERGY>
7.5425

> <PUBCHEM_FEATURE_SELFOVERLAP>
35.575

> <PUBCHEM_SHAPE_FINGERPRINT>
10014705 185 18335415786120314229
10680689 15 18200600305788839703
11089746 13 18342167873904292228
12500047 106 18341330084366771398
13675066 3 17530969068440517439
14123238 8 9367345929576666822
14123255 352 18409446969070193453
14123260 362 18342186565607245745
14252887 29 14418128500804542674
14445660 50 18040155144978243599
15239154 128 18407760352107814981
15242439 84 18342179972879873710
17834072 32 18197784302160646049
17834072 33 18341609347588039247
17834072 8 18343025479988757684
17834076 25 17821730546092282638
18186145 218 18333446556183592862
18915474 69 9655567509318851801
200 152 10952050043888503207
20112054 13 17458063746795646163
20300324 65 17704352182717370597
20432913 95 10665224839159729693
20645477 56 18411423899814847439
20645477 70 17703518696679136878
20767249 213 18259984864928690133
20828058 44 11530476735935837807
22646028 1 11743843555664186062
23402539 116 18060415824447472094
23402655 69 18272936050777839958
57265010 4 15140969431148229637
633830 44 18261108638557897390

> <PUBCHEM_SHAPE_MULTIPOLES>
244.94
11.66
1.32
0.85
0.18
0.17
0.06
3.39
-0.77
-0.18
0.18
-0.18
0.08
-0.05

> <PUBCHEM_SHAPE_SELFOVERLAP>
459.261

> <PUBCHEM_SHAPE_VOLUME>
151.8

> <PUBCHEM_COORDINATE_TYPE>
2
5
10

$$$$
