156988680
  -OEChem-06212602492D

132131  0     1  0  0  0  0  0999 V2000
    6.0010   -7.0950    0.0000 P   0  0  3  0  0  0  0  0  0  0  0  0
   17.2594   -5.5950    0.0000 O   0  0  0  0  0  0  0  0  0  0  0  0
   18.1254   -8.0950    0.0000 O   0  0  0  0  0  0  0  0  0  0  0  0
    9.4651   -7.0950    0.0000 O   0  0  0  0  0  0  0  0  0  0  0  0
    9.4651   -5.0950    0.0000 O   0  0  0  0  0  0  0  0  0  0  0  0
   10.3312   -5.5950    0.0000 O   0  0  0  0  0  0  0  0  0  0  0  0
    6.8671   -6.5950    0.0000 O   0  0  0  0  0  0  0  0  0  0  0  0
    5.1350   -7.5950    0.0000 O   0  0  0  0  0  0  0  0  0  0  0  0
    5.5010   -6.2290    0.0000 O   0  0  0  0  0  0  0  0  0  0  0  0
    6.5010   -7.9610    0.0000 O   0  0  0  0  0  0  0  0  0  0  0  0
    2.5369   -7.0950    0.0000 N   0  0  0  0  0  0  0  0  0  0  0  0
   13.7953    2.4050    0.0000 C   0  0  0  0  0  0  0  0  0  0  0  0
   13.7953    3.4050    0.0000 C   0  0  0  0  0  0  0  0  0  0  0  0
   12.9292    1.9050    0.0000 C   0  0  0  0  0  0  0  0  0  0  0  0
   14.6613    3.9050    0.0000 C   0  0  0  0  0  0  0  0  0  0  0  0
   12.9292    0.9050    0.0000 C   0  0  0  0  0  0  0  0  0  0  0  0
   14.6613    4.9050    0.0000 C   0  0  0  0  0  0  0  0  0  0  0  0
   12.0632    0.4050    0.0000 C   0  0  0  0  0  0  0  0  0  0  0  0
   16.3933   -7.0950    0.0000 C   0  0  0  0  0  0  0  0  0  0  0  0
   15.5273   -6.5950    0.0000 C   0  0  0  0  0  0  0  0  0  0  0  0
   15.5273    5.4050    0.0000 C   0  0  0  0  0  0  0  0  0  0  0  0
   17.2594   -6.5950    0.0000 C   0  0  1  0  0  0  0  0  0  0  0  0
   12.0632   -0.5950    0.0000 C   0  0  0  0  0  0  0  0  0  0  0  0
   14.6613   -7.0950    0.0000 C   0  0  0  0  0  0  0  0  0  0  0  0
   13.7953   -6.5950    0.0000 C   0  0  0  0  0  0  0  0  0  0  0  0
   15.5273    6.4050    0.0000 C   0  0  0  0  0  0  0  0  0  0  0  0
   18.1254   -7.0950    0.0000 C   0  0  2  0  0  0  0  0  0  0  0  0
   11.1972   -1.0950    0.0000 C   0  0  0  0  0  0  0  0  0  0  0  0
   12.9292   -7.0950    0.0000 C   0  0  0  0  0  0  0  0  0  0  0  0
   16.3933    6.9050    0.0000 C   0  0  0  0  0  0  0  0  0  0  0  0
   11.1972   -2.0950    0.0000 C   0  0  0  0  0  0  0  0  0  0  0  0
   12.0632   -6.5950    0.0000 C   0  0  0  0  0  0  0  0  0  0  0  0
   18.9914   -6.5950    0.0000 C   0  0  0  0  0  0  0  0  0  0  0  0
   16.3933    7.9050    0.0000 C   0  0  0  0  0  0  0  0  0  0  0  0
   10.3312   -2.5950    0.0000 C   0  0  0  0  0  0  0  0  0  0  0  0
   11.1972   -7.0950    0.0000 C   0  0  0  0  0  0  0  0  0  0  0  0
   19.8574   -7.0950    0.0000 C   0  0  0  0  0  0  0  0  0  0  0  0
   17.2594    8.4050    0.0000 C   0  0  0  0  0  0  0  0  0  0  0  0
   20.7235   -6.5950    0.0000 C   0  0  0  0  0  0  0  0  0  0  0  0
   10.3312   -6.5950    0.0000 C   0  0  0  0  0  0  0  0  0  0  0  0
   10.3312   -3.5950    0.0000 C   0  0  0  0  0  0  0  0  0  0  0  0
   20.7235   -5.5950    0.0000 C   0  0  0  0  0  0  0  0  0  0  0  0
   21.5895   -5.0950    0.0000 C   0  0  0  0  0  0  0  0  0  0  0  0
    8.5991   -6.5950    0.0000 C   0  0  2  0  0  0  0  0  0  0  0  0
   21.5895   -4.0950    0.0000 C   0  0  0  0  0  0  0  0  0  0  0  0
    8.5991   -5.5950    0.0000 C   0  0  0  0  0  0  0  0  0  0  0  0
    9.4651   -4.0950    0.0000 C   0  0  0  0  0  0  0  0  0  0  0  0
    7.7331   -7.0950    0.0000 C   0  0  0  0  0  0  0  0  0  0  0  0
   22.4555   -3.5950    0.0000 C   0  0  0  0  0  0  0  0  0  0  0  0
   22.4555   -2.5950    0.0000 C   0  0  0  0  0  0  0  0  0  0  0  0
    4.2690   -7.0950    0.0000 C   0  0  0  0  0  0  0  0  0  0  0  0
    3.4030   -7.5950    0.0000 C   0  0  0  0  0  0  0  0  0  0  0  0
   14.0073    1.8224    0.0000 H   0  0  0  0  0  0  0  0  0  0  0  0
   14.4058    2.5127    0.0000 H   0  0  0  0  0  0  0  0  0  0  0  0
   13.5832    3.9876    0.0000 H   0  0  0  0  0  0  0  0  0  0  0  0
   13.1847    3.2973    0.0000 H   0  0  0  0  0  0  0  0  0  0  0  0
   12.7172    2.4876    0.0000 H   0  0  0  0  0  0  0  0  0  0  0  0
   12.3187    1.7973    0.0000 H   0  0  0  0  0  0  0  0  0  0  0  0
   14.8733    3.3224    0.0000 H   0  0  0  0  0  0  0  0  0  0  0  0
   15.2719    4.0127    0.0000 H   0  0  0  0  0  0  0  0  0  0  0  0
   13.1413    0.3224    0.0000 H   0  0  0  0  0  0  0  0  0  0  0  0
   13.5398    1.0127    0.0000 H   0  0  0  0  0  0  0  0  0  0  0  0
   14.4492    5.4876    0.0000 H   0  0  0  0  0  0  0  0  0  0  0  0
   14.0507    4.7973    0.0000 H   0  0  0  0  0  0  0  0  0  0  0  0
   11.8512    0.9876    0.0000 H   0  0  0  0  0  0  0  0  0  0  0  0
   11.4526    0.2973    0.0000 H   0  0  0  0  0  0  0  0  0  0  0  0
   15.9948   -7.5700    0.0000 H   0  0  0  0  0  0  0  0  0  0  0  0
   16.7919   -7.5700    0.0000 H   0  0  0  0  0  0  0  0  0  0  0  0
   15.9258   -6.1200    0.0000 H   0  0  0  0  0  0  0  0  0  0  0  0
   15.1288   -6.1200    0.0000 H   0  0  0  0  0  0  0  0  0  0  0  0
   15.7394    4.8224    0.0000 H   0  0  0  0  0  0  0  0  0  0  0  0
   16.1379    5.5127    0.0000 H   0  0  0  0  0  0  0  0  0  0  0  0
   16.7224   -6.2850    0.0000 H   0  0  0  0  0  0  0  0  0  0  0  0
   12.2753   -1.1776    0.0000 H   0  0  0  0  0  0  0  0  0  0  0  0
   12.6738   -0.4873    0.0000 H   0  0  0  0  0  0  0  0  0  0  0  0
   14.2628   -7.5700    0.0000 H   0  0  0  0  0  0  0  0  0  0  0  0
   15.0598   -7.5700    0.0000 H   0  0  0  0  0  0  0  0  0  0  0  0
   14.1938   -6.1200    0.0000 H   0  0  0  0  0  0  0  0  0  0  0  0
   13.3967   -6.1200    0.0000 H   0  0  0  0  0  0  0  0  0  0  0  0
   15.3153    6.9876    0.0000 H   0  0  0  0  0  0  0  0  0  0  0  0
   14.9167    6.2973    0.0000 H   0  0  0  0  0  0  0  0  0  0  0  0
   18.6623   -7.4050    0.0000 H   0  0  0  0  0  0  0  0  0  0  0  0
   10.9851   -0.5124    0.0000 H   0  0  0  0  0  0  0  0  0  0  0  0
   10.5866   -1.2027    0.0000 H   0  0  0  0  0  0  0  0  0  0  0  0
   12.5307   -7.5700    0.0000 H   0  0  0  0  0  0  0  0  0  0  0  0
   13.3278   -7.5700    0.0000 H   0  0  0  0  0  0  0  0  0  0  0  0
   16.6054    6.3224    0.0000 H   0  0  0  0  0  0  0  0  0  0  0  0
   17.0039    7.0127    0.0000 H   0  0  0  0  0  0  0  0  0  0  0  0
   11.4092   -2.6776    0.0000 H   0  0  0  0  0  0  0  0  0  0  0  0
   11.8078   -1.9873    0.0000 H   0  0  0  0  0  0  0  0  0  0  0  0
   12.4617   -6.1200    0.0000 H   0  0  0  0  0  0  0  0  0  0  0  0
   11.6647   -6.1200    0.0000 H   0  0  0  0  0  0  0  0  0  0  0  0
   19.3899   -6.1200    0.0000 H   0  0  0  0  0  0  0  0  0  0  0  0
   18.5929   -6.1200    0.0000 H   0  0  0  0  0  0  0  0  0  0  0  0
   16.1813    8.4876    0.0000 H   0  0  0  0  0  0  0  0  0  0  0  0
   15.7828    7.7973    0.0000 H   0  0  0  0  0  0  0  0  0  0  0  0
   10.1191   -2.0124    0.0000 H   0  0  0  0  0  0  0  0  0  0  0  0
    9.7206   -2.7027    0.0000 H   0  0  0  0  0  0  0  0  0  0  0  0
   10.7987   -7.5700    0.0000 H   0  0  0  0  0  0  0  0  0  0  0  0
   11.5957   -7.5700    0.0000 H   0  0  0  0  0  0  0  0  0  0  0  0
   17.7963   -5.2850    0.0000 H   0  0  0  0  0  0  0  0  0  0  0  0
   19.8574   -7.7150    0.0000 H   0  0  0  0  0  0  0  0  0  0  0  0
   18.6623   -8.4050    0.0000 H   0  0  0  0  0  0  0  0  0  0  0  0
   17.5694    7.8681    0.0000 H   0  0  0  0  0  0  0  0  0  0  0  0
   17.7963    8.7150    0.0000 H   0  0  0  0  0  0  0  0  0  0  0  0
   16.9494    8.9419    0.0000 H   0  0  0  0  0  0  0  0  0  0  0  0
   21.2604   -6.9050    0.0000 H   0  0  0  0  0  0  0  0  0  0  0  0
   10.8681   -3.9050    0.0000 H   0  0  0  0  0  0  0  0  0  0  0  0
   20.5114   -5.0124    0.0000 H   0  0  0  0  0  0  0  0  0  0  0  0
   20.1129   -5.7027    0.0000 H   0  0  0  0  0  0  0  0  0  0  0  0
   21.8015   -5.6776    0.0000 H   0  0  0  0  0  0  0  0  0  0  0  0
   22.2001   -4.9873    0.0000 H   0  0  0  0  0  0  0  0  0  0  0  0
    8.5991   -7.2150    0.0000 H   0  0  0  0  0  0  0  0  0  0  0  0
   21.3774   -3.5124    0.0000 H   0  0  0  0  0  0  0  0  0  0  0  0
   20.9789   -4.2027    0.0000 H   0  0  0  0  0  0  0  0  0  0  0  0
    8.3871   -5.0124    0.0000 H   0  0  0  0  0  0  0  0  0  0  0  0
    7.9885   -5.7027    0.0000 H   0  0  0  0  0  0  0  0  0  0  0  0
    8.9282   -3.7850    0.0000 H   0  0  0  0  0  0  0  0  0  0  0  0
    7.3346   -7.5700    0.0000 H   0  0  0  0  0  0  0  0  0  0  0  0
    8.1316   -7.5700    0.0000 H   0  0  0  0  0  0  0  0  0  0  0  0
   22.6676   -4.1776    0.0000 H   0  0  0  0  0  0  0  0  0  0  0  0
   23.0661   -3.4873    0.0000 H   0  0  0  0  0  0  0  0  0  0  0  0
   23.0755   -2.5950    0.0000 H   0  0  0  0  0  0  0  0  0  0  0  0
   22.4555   -1.9750    0.0000 H   0  0  0  0  0  0  0  0  0  0  0  0
   21.8355   -2.5950    0.0000 H   0  0  0  0  0  0  0  0  0  0  0  0
    5.8110   -5.6920    0.0000 H   0  0  0  0  0  0  0  0  0  0  0  0
    4.6675   -6.6200    0.0000 H   0  0  0  0  0  0  0  0  0  0  0  0
    3.8705   -6.6200    0.0000 H   0  0  0  0  0  0  0  0  0  0  0  0
    3.0044   -8.0700    0.0000 H   0  0  0  0  0  0  0  0  0  0  0  0
    3.8015   -8.0700    0.0000 H   0  0  0  0  0  0  0  0  0  0  0  0
    2.0000   -7.4050    0.0000 H   0  0  0  0  0  0  0  0  0  0  0  0
    2.5369   -6.4750    0.0000 H   0  0  0  0  0  0  0  0  0  0  0  0
  1  7  1  0  0  0  0
  1  8  1  0  0  0  0
  1  9  1  0  0  0  0
  1 10  2  0  0  0  0
 22  2  1  6  0  0  0
  2101  1  0  0  0  0
 27  3  1  6  0  0  0
  3103  1  0  0  0  0
  4 40  1  0  0  0  0
 44  4  1  1  0  0  0
  5 46  1  0  0  0  0
  5 47  1  0  0  0  0
  6 40  2  0  0  0  0
  7 48  1  0  0  0  0
  8 51  1  0  0  0  0
  9126  1  0  0  0  0
 11 52  1  0  0  0  0
 11131  1  0  0  0  0
 11132  1  0  0  0  0
 12 13  1  0  0  0  0
 12 14  1  0  0  0  0
 12 53  1  0  0  0  0
 12 54  1  0  0  0  0
 13 15  1  0  0  0  0
 13 55  1  0  0  0  0
 13 56  1  0  0  0  0
 14 16  1  0  0  0  0
 14 57  1  0  0  0  0
 14 58  1  0  0  0  0
 15 17  1  0  0  0  0
 15 59  1  0  0  0  0
 15 60  1  0  0  0  0
 16 18  1  0  0  0  0
 16 61  1  0  0  0  0
 16 62  1  0  0  0  0
 17 21  1  0  0  0  0
 17 63  1  0  0  0  0
 17 64  1  0  0  0  0
 18 23  1  0  0  0  0
 18 65  1  0  0  0  0
 18 66  1  0  0  0  0
 19 20  1  0  0  0  0
 19 22  1  0  0  0  0
 19 67  1  0  0  0  0
 19 68  1  0  0  0  0
 20 24  1  0  0  0  0
 20 69  1  0  0  0  0
 20 70  1  0  0  0  0
 21 26  1  0  0  0  0
 21 71  1  0  0  0  0
 21 72  1  0  0  0  0
 22 27  1  0  0  0  0
 22 73  1  0  0  0  0
 23 28  1  0  0  0  0
 23 74  1  0  0  0  0
 23 75  1  0  0  0  0
 24 25  1  0  0  0  0
 24 76  1  0  0  0  0
 24 77  1  0  0  0  0
 25 29  1  0  0  0  0
 25 78  1  0  0  0  0
 25 79  1  0  0  0  0
 26 30  1  0  0  0  0
 26 80  1  0  0  0  0
 26 81  1  0  0  0  0
 27 33  1  0  0  0  0
 27 82  1  0  0  0  0
 28 31  1  0  0  0  0
 28 83  1  0  0  0  0
 28 84  1  0  0  0  0
 29 32  1  0  0  0  0
 29 85  1  0  0  0  0
 29 86  1  0  0  0  0
 30 34  1  0  0  0  0
 30 87  1  0  0  0  0
 30 88  1  0  0  0  0
 31 35  1  0  0  0  0
 31 89  1  0  0  0  0
 31 90  1  0  0  0  0
 32 36  1  0  0  0  0
 32 91  1  0  0  0  0
 32 92  1  0  0  0  0
 33 37  1  0  0  0  0
 33 93  1  0  0  0  0
 33 94  1  0  0  0  0
 34 38  1  0  0  0  0
 34 95  1  0  0  0  0
 34 96  1  0  0  0  0
 35 41  1  0  0  0  0
 35 97  1  0  0  0  0
 35 98  1  0  0  0  0
 36 40  1  0  0  0  0
 36 99  1  0  0  0  0
 36100  1  0  0  0  0
 37 39  2  0  0  0  0
 37102  1  0  0  0  0
 38104  1  0  0  0  0
 38105  1  0  0  0  0
 38106  1  0  0  0  0
 39 42  1  0  0  0  0
 39107  1  0  0  0  0
 41 47  2  0  0  0  0
 41108  1  0  0  0  0
 42 43  1  0  0  0  0
 42109  1  0  0  0  0
 42110  1  0  0  0  0
 43 45  1  0  0  0  0
 43111  1  0  0  0  0
 43112  1  0  0  0  0
 44 46  1  0  0  0  0
 44 48  1  0  0  0  0
 44113  1  0  0  0  0
 45 49  1  0  0  0  0
 45114  1  0  0  0  0
 45115  1  0  0  0  0
 46116  1  0  0  0  0
 46117  1  0  0  0  0
 47118  1  0  0  0  0
 48119  1  0  0  0  0
 48120  1  0  0  0  0
 49 50  1  0  0  0  0
 49121  1  0  0  0  0
 49122  1  0  0  0  0
 50123  1  0  0  0  0
 50124  1  0  0  0  0
 50125  1  0  0  0  0
 51 52  1  0  0  0  0
 51127  1  0  0  0  0
 51128  1  0  0  0  0
 52129  1  0  0  0  0
 52130  1  0  0  0  0
M  END
> <PUBCHEM_COMPOUND_CID>
156988680

> <PUBCHEM_COMPOUND_CANONICALIZED>
1

> <PUBCHEM_CACTVS_COMPLEXITY>
888

> <PUBCHEM_CACTVS_HBOND_ACCEPTOR>
10

> <PUBCHEM_CACTVS_HBOND_DONOR>
4

> <PUBCHEM_CACTVS_ROTATABLE_BOND>
41

> <PUBCHEM_CACTVS_SUBSKEYS>
AAADcfB+PAIAAAAAAAAAAAAAAAAAAAAAAAAAAAAAAAAAAAAAAAAAHgAQCCAACBThgAYCCABABxCIQCDSCIAACAAgIAAICIEAAAgDEBIAAQACQAAF0AALAAOIyKCAAAAAAAAAAAAAAAAAAAAAAAAAAAAAAA==

> <PUBCHEM_IUPAC_OPENEYE_NAME>
[(1R)-1-[[2-aminoethoxy(hydroxy)phosphoryl]oxymethyl]-2-[(E)-octadec-1-enoxy]ethyl] (Z,9S,10S)-9,10-dihydroxyoctadec-12-enoate

> <PUBCHEM_IUPAC_CAS_NAME>
(Z,9S,10S)-9,10-dihydroxy-12-octadecenoic acid [(2R)-1-[2-aminoethoxy(hydroxy)phosphoryl]oxy-3-[(E)-octadec-1-enoxy]propan-2-yl] ester

> <PUBCHEM_IUPAC_NAME_MARKUP>
[(2<I>R</I>)-1-[2-aminoethoxy(hydroxy)phosphoryl]oxy-3-[(<I>E</I>)-octadec-1-enoxy]propan-2-yl] (<I>Z</I>,9<I>S</I>,10<I>S</I>)-9,10-dihydroxyoctadec-12-enoate

> <PUBCHEM_IUPAC_NAME>
[(2R)-1-[2-aminoethoxy(hydroxy)phosphoryl]oxy-3-[(E)-octadec-1-enoxy]propan-2-yl] (Z,9S,10S)-9,10-dihydroxyoctadec-12-enoate

> <PUBCHEM_IUPAC_SYSTEMATIC_NAME>
[(2R)-1-[2-azanylethoxy(oxidanyl)phosphoryl]oxy-3-[(E)-octadec-1-enoxy]propan-2-yl] (Z,9S,10S)-9,10-bis(oxidanyl)octadec-12-enoate

> <PUBCHEM_IUPAC_TRADITIONAL_NAME>
(Z,9S,10S)-9,10-dihydroxyoctadec-12-enoic acid [(1R)-1-[[2-aminoethoxy(hydroxy)phosphoryl]oxymethyl]-2-[(E)-octadec-1-enoxy]ethyl] ester

> <PUBCHEM_IUPAC_INCHI>
InChI=1S/C41H80NO9P/c1-3-5-7-9-11-12-13-14-15-16-17-18-19-20-25-29-34-48-36-38(37-50-52(46,47)49-35-33-42)51-41(45)32-28-24-21-23-27-31-40(44)39(43)30-26-22-10-8-6-4-2/h22,26,29,34,38-40,43-44H,3-21,23-25,27-28,30-33,35-37,42H2,1-2H3,(H,46,47)/b26-22-,34-29+/t38-,39+,40+/m1/s1

> <PUBCHEM_IUPAC_INCHIKEY>
HLQPNCNJEMONNP-GNYAANRMSA-N

> <PUBCHEM_XLOGP3_AA>
9.4

> <PUBCHEM_EXACT_MASS>
761.55707013

> <PUBCHEM_MOLECULAR_FORMULA>
C41H80NO9P

> <PUBCHEM_MOLECULAR_WEIGHT>
762.0

> <PUBCHEM_SMILES>
CCCCCCCCCCCCCCCC/C=C/OC[C@H](COP(=O)(O)OCCN)OC(=O)CCCCCCC[C@@H]([C@H](C/C=C\CCCCC)O)O

> <PUBCHEM_CONNECTIVITY_SMILES>
CCCCCCCCCCCCCCCCC=COCC(COP(=O)(O)OCCN)OC(=O)CCCCCCCC(C(CC=CCCCCC)O)O

> <PUBCHEM_CACTVS_TPSA>
158

> <PUBCHEM_MONOISOTOPIC_WEIGHT>
761.55707013

> <PUBCHEM_TOTAL_CHARGE>
0

> <PUBCHEM_HEAVY_ATOM_COUNT>
52

> <PUBCHEM_ATOM_DEF_STEREO_COUNT>
3

> <PUBCHEM_ATOM_UDEF_STEREO_COUNT>
0

> <PUBCHEM_BOND_DEF_STEREO_COUNT>
2

> <PUBCHEM_BOND_UDEF_STEREO_COUNT>
0

> <PUBCHEM_ISOTOPIC_ATOM_COUNT>
0

> <PUBCHEM_COMPONENT_COUNT>
1

> <PUBCHEM_CACTVS_TAUTO_COUNT>
-1

> <PUBCHEM_COORDINATE_TYPE>
1
5
255

> <PUBCHEM_BONDANNOTATIONS>
22  2  6
27  3  6
44  4  5

$$$$
