440832
 OpenBabel06212614533D

 31 33  0  0  0  0  0  0  0  0999 V2000
    1.2520    1.2131    0.0713 O   0  3  0  0  0  0  0  0  0  0  0  0
    3.5926   -1.5041    0.0003 O   0  0  0  0  0  0  0  0  0  0  0  0
   -1.2966   -2.7740   -0.0112 O   0  0  0  0  0  0  0  0  0  0  0  0
   -3.3529    1.5544    0.0186 O   0  0  0  0  0  0  0  0  0  0  0  0
    6.8976    3.9592   -0.3310 O   0  0  0  0  0  0  0  0  0  0  0  0
    0.0567   -0.8113    0.0230 C   0  0  0  0  0  0  0  0  0  0  0  0
    0.1517    0.5948    0.0424 C   0  0  0  0  0  0  0  0  0  0  0  0
    2.3557    0.5916   -0.0037 C   0  0  0  0  0  0  0  0  0  0  0  0
    3.5455    1.4699   -0.0837 C   0  0  0  0  0  0  0  0  0  0  0  0
    1.2334   -1.5418    0.0179 C   0  0  0  0  0  0  0  0  0  0  0  0
    2.4043   -0.8248    0.0012 C   0  0  0  0  0  0  0  0  0  0  0  0
   -1.2187   -1.4089    0.0065 C   0  0  0  0  0  0  0  0  0  0  0  0
   -1.0099    1.3629    0.0423 C   0  0  0  0  0  0  0  0  0  0  0  0
   -2.2580    0.7457    0.0212 C   0  0  0  0  0  0  0  0  0  0  0  0
   -2.3780   -0.6387    0.0044 C   0  0  0  0  0  0  0  0  0  0  0  0
    3.5620    2.7190    0.5723 C   0  0  0  0  0  0  0  0  0  0  0  0
    4.6904    1.1194   -0.8282 C   0  0  0  0  0  0  0  0  0  0  0  0
    4.6785    3.5654    0.5076 C   0  0  0  0  0  0  0  0  0  0  0  0
    5.8037    1.9609   -0.8943 C   0  0  0  0  0  0  0  0  0  0  0  0
    5.7901    3.1758   -0.2274 C   0  0  0  0  0  0  0  0  0  0  0  0
    1.2200   -2.6283    0.0114 H   0  0  0  0  0  0  0  0  0  0  0  0
   -0.9330    2.4455    0.0567 H   0  0  0  0  0  0  0  0  0  0  0  0
   -3.3579   -1.1089   -0.0110 H   0  0  0  0  0  0  0  0  0  0  0  0
    2.6995    3.0469    1.1523 H   0  0  0  0  0  0  0  0  0  0  0  0
    4.7427    0.1836   -1.3821 H   0  0  0  0  0  0  0  0  0  0  0  0
    4.6628    4.5172    1.0319 H   0  0  0  0  0  0  0  0  0  0  0  0
    6.6795    1.6684   -1.4697 H   0  0  0  0  0  0  0  0  0  0  0  0
    3.4584   -2.4705    0.0363 H   0  0  0  0  0  0  0  0  0  0  0  0
   -2.2260   -3.0703   -0.0161 H   0  0  0  0  0  0  0  0  0  0  0  0
   -4.1767    1.0332   -0.0015 H   0  0  0  0  0  0  0  0  0  0  0  0
    6.7605    4.7895    0.1546 H   0  0  0  0  0  0  0  0  0  0  0  0
  1  7  1  0  0  0  0
  1  8  2  0  0  0  0
  2 11  1  0  0  0  0
  2 28  1  0  0  0  0
  3 12  1  0  0  0  0
  3 29  1  0  0  0  0
  4 14  1  0  0  0  0
  4 30  1  0  0  0  0
  5 20  1  0  0  0  0
  5 31  1  0  0  0  0
  6  7  1  0  0  0  0
  6 10  1  0  0  0  0
  6 12  2  0  0  0  0
  7 13  2  0  0  0  0
  8  9  1  0  0  0  0
  8 11  1  0  0  0  0
  9 16  2  0  0  0  0
  9 17  1  0  0  0  0
 10 11  2  0  0  0  0
 10 21  1  0  0  0  0
 12 15  1  0  0  0  0
 13 14  1  0  0  0  0
 13 22  1  0  0  0  0
 14 15  2  0  0  0  0
 15 23  1  0  0  0  0
 16 18  1  0  0  0  0
 16 24  1  0  0  0  0
 17 19  2  0  0  0  0
 17 25  1  0  0  0  0
 18 20  2  0  0  0  0
 18 26  1  0  0  0  0
 19 20  1  0  0  0  0
 19 27  1  0  0  0  0
M  CHG  1   1   1
M  END
>  <PUBCHEM_COMPOUND_CID>
440832

>  <PUBCHEM_CONFORMER_RMSD>
0.6

>  <PUBCHEM_CONFORMER_DIVERSEORDER>
1

>  <PUBCHEM_MMFF94_PARTIAL_CHARGES>
31
1 -0.87
10 -0.18
11 0.09
12 0.08
13 -0.15
14 0.08
15 -0.15
16 -0.15
17 -0.15
18 -0.15
19 -0.15
2 -0.53
20 0.08
21 0.15
22 0.15
23 0.15
24 0.15
25 0.15
26 0.15
27 0.15
28 0.45
29 0.45
3 -0.53
30 0.45
31 0.45
4 -0.53
5 -0.53
6 0.03
7 0.92
8 0.85
9 0.09

>  <PUBCHEM_EFFECTIVE_ROTOR_COUNT>
1

>  <PUBCHEM_PHARMACOPHORE_FEATURES>
7
1 2 donor
1 3 donor
1 4 donor
1 5 donor
6 1 6 7 8 10 11 rings
6 6 7 12 13 14 15 rings
6 9 16 17 18 19 20 rings

>  <PUBCHEM_HEAVY_ATOM_COUNT>
20

>  <PUBCHEM_ATOM_DEF_STEREO_COUNT>
0

>  <PUBCHEM_ATOM_UDEF_STEREO_COUNT>
0

>  <PUBCHEM_BOND_DEF_STEREO_COUNT>
0

>  <PUBCHEM_BOND_UDEF_STEREO_COUNT>
0

>  <PUBCHEM_ISOTOPIC_ATOM_COUNT>
0

>  <PUBCHEM_COMPONENT_COUNT>
1

>  <PUBCHEM_CACTVS_TAUTO_COUNT>
123

>  <PUBCHEM_CONFORMER_ID>
0006BA0000000001

>  <PUBCHEM_MMFF94_ENERGY>
64.1635

>  <PUBCHEM_FEATURE_SELFOVERLAP>
35.553

>  <PUBCHEM_SHAPE_FINGERPRINT>
10912923 1 17775009011462553587
11471102 20 18409167748677038784
11796584 16 17240481420544569243
12107183 9 17768543685485662955
12236239 1 17846501461145643955
12553582 1 18343577443357800446
13134695 92 18341610455779532125
13140716 1 17979914136049333176
13533116 47 18272369793367557795
13544653 18 18335424555900252589
13760787 5 18342454850565180751
13862211 1 18409728418240748554
13955234 65 18340482361581705944
14386348 63 17894914057364563531
14576447 43 18057310893810487135
15196674 1 18410575050330078089
15375358 24 18040714809249801361
15375462 189 18131351929336143784
15961568 22 16009317633729255332
16945 1 18410855503653127024
17357779 13 18260536819185890613
17492 89 18196088850708736206
17844677 252 18335987497527652437
1813 80 18271258139624578164
18186145 218 17458345212702309472
19784866 140 18187362086984764755
200 152 18342172254728573675
20028762 73 18272928298014952126
20281475 54 18273490186830765239
20645477 70 18408037407779475294
21065201 7 16587738728954076179
21267235 1 18412269411092286358
221357 26 18261383447924706301
221490 88 18336547110586721260
23175994 123 18114185241944890821
23402539 116 18340484465482794607
23559900 14 17603871100446616138
25147074 1 18268445563622898672
26918003 58 18113899372588674627
2871803 45 18187082823858124178
312423 11 18339655438379638508
314194 84 18343580776453278247
33824 294 18408320012675222954
345986 75 18059571322276702426
34797466 226 16588034531994622479
34934 24 18268706280842806454
42630746 31 18413107295055907464
46194498 28 17531806986706277821
465052 167 18343306976282523479
474 4 17771053084442772600
5104073 3 18339920416118116080
5281201 14 17894911819312127852
5283173 99 18042677322042983325
573450 72 17203891860000485811
602551 16 15195276581727172325
9709674 26 18335141973038140416

>  <PUBCHEM_SHAPE_MULTIPOLES>
382.24
10.91
2.07
0.91
5.55
0.52
0.01
-4.41
0.13
-2.71
-0.02
1.07
-0.09
-0.05

>  <PUBCHEM_SHAPE_SELFOVERLAP>
852.11

>  <PUBCHEM_SHAPE_VOLUME>
201.8

>  <PUBCHEM_COORDINATE_TYPE>
2
5
10

>  <Energy>
92.9662

$$$$
