5280443
 OpenBabel06212614533D

 30 32  0  0  0  0  0  0  0  0999 V2000
   -0.7994   -2.1204    0.0143 O   0  0  0  0  0  0  0  0  0  0  0  0
    0.1146    2.6391   -0.0294 O   0  0  0  0  0  0  0  0  0  0  0  0
   -2.4185    1.6164    0.0154 O   0  0  0  0  0  0  0  0  0  0  0  0
    3.6457   -0.5847    0.0052 O   0  0  0  0  0  0  0  0  0  0  0  0
   -5.2359   -6.5886   -0.2243 O   0  0  0  0  0  0  0  0  0  0  0  0
   -0.4177    0.2915    0.0022 C   0  0  0  0  0  0  0  0  0  0  0  0
    0.0383   -1.0312    0.0168 C   0  0  0  0  0  0  0  0  0  0  0  0
   -2.1578   -1.8936   -0.0443 C   0  0  0  0  0  0  0  0  0  0  0  0
   -2.9702   -3.1114   -0.1009 C   0  0  0  0  0  0  0  0  0  0  0  0
   -1.8834    0.5166   -0.0087 C   0  0  0  0  0  0  0  0  0  0  0  0
   -2.7334   -0.6867   -0.0560 C   0  0  0  0  0  0  0  0  0  0  0  0
    0.5201    1.3350   -0.0080 C   0  0  0  0  0  0  0  0  0  0  0  0
    1.4061   -1.3110    0.0265 C   0  0  0  0  0  0  0  0  0  0  0  0
    2.3202   -0.2653    0.0107 C   0  0  0  0  0  0  0  0  0  0  0  0
    1.8917    1.0582   -0.0064 C   0  0  0  0  0  0  0  0  0  0  0  0
   -3.3072   -3.6766   -1.3385 C   0  0  0  0  0  0  0  0  0  0  0  0
   -3.4166   -3.7202    1.0786 C   0  0  0  0  0  0  0  0  0  0  0  0
   -4.0725   -4.8446   -1.3970 C   0  0  0  0  0  0  0  0  0  0  0  0
   -4.1820   -4.8865    1.0196 C   0  0  0  0  0  0  0  0  0  0  0  0
   -4.4990   -5.4416   -0.2150 C   0  0  0  0  0  0  0  0  0  0  0  0
   -3.8038   -0.5318   -0.0999 H   0  0  0  0  0  0  0  0  0  0  0  0
    1.7561   -2.3397    0.0397 H   0  0  0  0  0  0  0  0  0  0  0  0
    2.6147    1.8670   -0.0200 H   0  0  0  0  0  0  0  0  0  0  0  0
   -2.9704   -3.2126   -2.2631 H   0  0  0  0  0  0  0  0  0  0  0  0
   -3.1674   -3.2952    2.0481 H   0  0  0  0  0  0  0  0  0  0  0  0
   -4.3202   -5.2691   -2.3646 H   0  0  0  0  0  0  0  0  0  0  0  0
   -4.5248   -5.3632    1.9337 H   0  0  0  0  0  0  0  0  0  0  0  0
    0.8743    3.2395   -0.0043 H   0  0  0  0  0  0  0  0  0  0  0  0
    4.1749    0.2290   -0.0368 H   0  0  0  0  0  0  0  0  0  0  0  0
   -5.3434   -6.8817   -1.1440 H   0  0  0  0  0  0  0  0  0  0  0  0
  1  7  1  0  0  0  0
  1  8  1  0  0  0  0
  2 12  1  0  0  0  0
  2 28  1  0  0  0  0
  3 10  2  0  0  0  0
  4 14  1  0  0  0  0
  4 29  1  0  0  0  0
  5 20  1  0  0  0  0
  5 30  1  0  0  0  0
  6  7  1  0  0  0  0
  6 10  1  0  0  0  0
  6 12  2  0  0  0  0
  7 13  2  0  0  0  0
  8  9  1  0  0  0  0
  8 11  2  0  0  0  0
  9 16  2  0  0  0  0
  9 17  1  0  0  0  0
 10 11  1  0  0  0  0
 11 21  1  0  0  0  0
 12 15  1  0  0  0  0
 13 14  1  0  0  0  0
 13 22  1  0  0  0  0
 14 15  2  0  0  0  0
 15 23  1  0  0  0  0
 16 18  1  0  0  0  0
 16 24  1  0  0  0  0
 17 19  2  0  0  0  0
 17 25  1  0  0  0  0
 18 20  2  0  0  0  0
 18 26  1  0  0  0  0
 19 20  1  0  0  0  0
 19 27  1  0  0  0  0
M  END
>  <PUBCHEM_COMPOUND_CID>
5280443

>  <PUBCHEM_CONFORMER_RMSD>
0.6

>  <PUBCHEM_CONFORMER_DIVERSEORDER>
1

>  <PUBCHEM_MMFF94_PARTIAL_CHARGES>
30
1 -0.16
10 0.47
11 -0.14
12 0.08
13 -0.15
14 0.08
15 -0.15
16 -0.15
17 -0.15
18 -0.15
19 -0.15
2 -0.53
20 0.08
21 0.15
22 0.15
23 0.15
24 0.15
25 0.15
26 0.15
27 0.15
28 0.45
29 0.45
3 -0.57
30 0.45
4 -0.53
5 -0.53
6 0.09
7 0.08
8 0.05
9 0.03

>  <PUBCHEM_EFFECTIVE_ROTOR_COUNT>
1

>  <PUBCHEM_PHARMACOPHORE_FEATURES>
8
1 1 acceptor
1 2 donor
1 3 acceptor
1 4 donor
1 5 donor
6 1 6 7 8 10 11 rings
6 6 7 12 13 14 15 rings
6 9 16 17 18 19 20 rings

>  <PUBCHEM_HEAVY_ATOM_COUNT>
20

>  <PUBCHEM_ATOM_DEF_STEREO_COUNT>
0

>  <PUBCHEM_ATOM_UDEF_STEREO_COUNT>
0

>  <PUBCHEM_BOND_DEF_STEREO_COUNT>
0

>  <PUBCHEM_BOND_UDEF_STEREO_COUNT>
0

>  <PUBCHEM_ISOTOPIC_ATOM_COUNT>
0

>  <PUBCHEM_COMPONENT_COUNT>
1

>  <PUBCHEM_CACTVS_TAUTO_COUNT>
57

>  <PUBCHEM_CONFORMER_ID>
005092BB00000001

>  <PUBCHEM_MMFF94_ENERGY>
60.7436

>  <PUBCHEM_FEATURE_SELFOVERLAP>
40.625

>  <PUBCHEM_SHAPE_FINGERPRINT>
10014705 185 18335983090743610973
10319926 262 18339344337187947850
10411042 1 17833271196427205891
10493431 412 18339369544277550625
10498660 4 18336260146151624709
10608611 8 18342173405853837512
10646746 165 18410292501880224548
11315181 36 17967532415338923724
12107183 9 17973996255225508682
12173636 292 18409726227717107541
12236239 1 17458341966376888130
12390115 104 18270696268119625369
12403259 415 18202279234227041088
12500047 106 18411979165633848254
13073987 5 18334573538601782738
13140716 1 17974859676764465403
13544592 145 18269848531875060550
14508225 48 18124582335750861655
14790565 3 17908712730609502257
15042514 8 18192436496683379403
15196674 1 18411138009184468990
15375358 24 18272089392275024390
17844677 252 18338524131077601056
18186145 218 18201727210401115800
200 152 17060622204808618226
20510252 161 18342459253144016673
20645477 56 18410013234284757832
20645477 70 17203058396143606462
21033648 29 18271516554985427096
21065198 57 18411699920035301594
21236236 1 18412826893710328947
21267235 1 18337116777299593123
21279426 13 18269277859449011198
21421861 104 17750502976618702298
23402539 116 18412538829647092654
23402655 69 18131067100338114972
23557571 272 18342746247148492668
23559900 14 18271807861775124550
245318 6 16448986100328701468
283562 15 18410291424461079675
2916195 48 18342730849902058064
3004659 81 18335425613612532158
335352 9 18267022748231475478
350125 39 18410298038462750009
3545911 37 18342460348455732712
4028521 119 18341892965631935697
4214541 1 18411419514231212472
474 4 16879077545412114420
495365 180 17346021334593014002
5104073 3 18410011005465809410
542803 24 17530686524359763644
559249 180 18337386046670377618
633830 44 18199743644401676445
69090 78 18272086119177836790
77779 3 18412263930592437412
9709674 26 18342463655380539086

>  <PUBCHEM_SHAPE_MULTIPOLES>
382.24
10.96
2.41
0.66
9.09
0.24
0
-3.75
0.48
-2.84
-0.06
0.21
-0.01
0.71

>  <PUBCHEM_SHAPE_SELFOVERLAP>
856.39

>  <PUBCHEM_SHAPE_VOLUME>
201.3

>  <PUBCHEM_COORDINATE_TYPE>
2
5
10

>  <Energy>
34.5594

$$$$
