11095
 OpenBabel06212614533D

 33 35  0  0  1  0  0  0  0  0999 V2000
    0.7729   -2.1545    0.1389 O   0  0  0  0  0  0  0  0  0  0  0  0
    2.3024    1.6353   -0.0725 O   0  0  0  0  0  0  0  0  0  0  0  0
   -0.1235    2.6235   -0.1348 O   0  0  0  0  0  0  0  0  0  0  0  0
   -3.6670   -0.4752    0.0046 O   0  0  0  0  0  0  0  0  0  0  0  0
    3.8550   -5.2593    2.9196 O   0  0  0  0  0  0  0  0  0  0  0  0
    5.1098   -6.5926    0.9226 O   0  0  0  0  0  0  0  0  0  0  0  0
    2.1178   -1.9225   -0.3084 C   0  0  1  0  0  0  0  0  0  0  0  0
    2.7278   -0.6901    0.3490 C   0  0  0  0  0  0  0  0  0  0  0  0
    2.9172   -3.1715    0.0281 C   0  0  0  0  0  0  0  0  0  0  0  0
    0.4103    0.2527   -0.0262 C   0  0  0  0  0  0  0  0  0  0  0  0
    1.8618    0.4933    0.0391 C   0  0  0  0  0  0  0  0  0  0  0  0
   -0.0490   -1.0644    0.0367 C   0  0  0  0  0  0  0  0  0  0  0  0
   -0.5043    1.3099   -0.0885 C   0  0  0  0  0  0  0  0  0  0  0  0
    3.0003   -3.6362    1.3545 C   0  0  0  0  0  0  0  0  0  0  0  0
    3.5805   -3.8856   -0.9864 C   0  0  0  0  0  0  0  0  0  0  0  0
   -1.4204   -1.3258    0.0489 C   0  0  0  0  0  0  0  0  0  0  0  0
   -1.8720    1.0514   -0.0806 C   0  0  0  0  0  0  0  0  0  0  0  0
   -2.3200   -0.2642   -0.0111 C   0  0  0  0  0  0  0  0  0  0  0  0
    3.7402   -4.7771    1.6448 C   0  0  0  0  0  0  0  0  0  0  0  0
    4.3166   -5.0359   -0.6845 C   0  0  0  0  0  0  0  0  0  0  0  0
    4.3907   -5.4701    0.6297 C   0  0  0  0  0  0  0  0  0  0  0  0
    2.0887   -1.7941   -1.4003 H   0  0  0  0  0  0  0  0  0  0  0  0
    2.7757   -0.7767    1.4405 H   0  0  0  0  0  0  0  0  0  0  0  0
    3.7380   -0.5096   -0.0352 H   0  0  0  0  0  0  0  0  0  0  0  0
    2.4790   -3.1045    2.1456 H   0  0  0  0  0  0  0  0  0  0  0  0
    3.5287   -3.5579   -2.0227 H   0  0  0  0  0  0  0  0  0  0  0  0
   -1.7674   -2.3533    0.1053 H   0  0  0  0  0  0  0  0  0  0  0  0
   -2.5841    1.8713   -0.1163 H   0  0  0  0  0  0  0  0  0  0  0  0
    4.8246   -5.5900   -1.4680 H   0  0  0  0  0  0  0  0  0  0  0  0
    0.8595    2.6616   -0.1343 H   0  0  0  0  0  0  0  0  0  0  0  0
   -3.8417   -1.4293    0.0614 H   0  0  0  0  0  0  0  0  0  0  0  0
    3.3540   -4.6737    3.5129 H   0  0  0  0  0  0  0  0  0  0  0  0
    5.0136   -6.7000    1.8903 H   0  0  0  0  0  0  0  0  0  0  0  0
  1  7  1  0  0  0  0
  1 12  1  0  0  0  0
  2 11  2  0  0  0  0
  3 13  1  0  0  0  0
  3 30  1  0  0  0  0
  4 18  1  0  0  0  0
  4 31  1  0  0  0  0
  5 19  1  0  0  0  0
  5 32  1  0  0  0  0
  6 21  1  0  0  0  0
  6 33  1  0  0  0  0
  7  8  1  0  0  0  0
  7  9  1  0  0  0  0
  7 22  1  6  0  0  0
  8 11  1  0  0  0  0
  8 23  1  0  0  0  0
  8 24  1  0  0  0  0
  9 14  2  0  0  0  0
  9 15  1  0  0  0  0
 10 11  1  0  0  0  0
 10 12  1  0  0  0  0
 10 13  2  0  0  0  0
 12 16  2  0  0  0  0
 13 17  1  0  0  0  0
 14 19  1  0  0  0  0
 14 25  1  0  0  0  0
 15 20  2  0  0  0  0
 15 26  1  0  0  0  0
 16 18  1  0  0  0  0
 16 27  1  0  0  0  0
 17 18  2  0  0  0  0
 17 28  1  0  0  0  0
 19 21  2  0  0  0  0
 20 21  1  0  0  0  0
 20 29  1  0  0  0  0
M  END
>  <PUBCHEM_COMPOUND_CID>
11095

>  <PUBCHEM_CONFORMER_RMSD>
0.6

>  <PUBCHEM_CONFORMER_DIVERSEORDER>
1
11
5
3
13
9
8
14
6
4
12
7
10
2
15

>  <PUBCHEM_MMFF94_PARTIAL_CHARGES>
30
1 -0.36
10 0.09
11 0.42
12 0.08
13 0.08
14 -0.15
15 -0.15
16 -0.15
17 -0.15
18 0.08
19 0.08
2 -0.57
20 -0.15
21 0.08
25 0.15
26 0.15
27 0.15
28 0.15
29 0.15
3 -0.53
30 0.45
31 0.45
32 0.45
33 0.45
4 -0.53
5 -0.53
6 -0.53
7 0.42
8 0.06
9 -0.14

>  <PUBCHEM_EFFECTIVE_ROTOR_COUNT>
1.6

>  <PUBCHEM_PHARMACOPHORE_FEATURES>
9
1 1 acceptor
1 2 acceptor
1 3 donor
1 4 donor
1 5 donor
1 6 donor
6 1 7 8 10 11 12 rings
6 10 12 13 16 17 18 rings
6 9 14 15 19 20 21 rings

>  <PUBCHEM_HEAVY_ATOM_COUNT>
21

>  <PUBCHEM_ATOM_DEF_STEREO_COUNT>
0

>  <PUBCHEM_ATOM_UDEF_STEREO_COUNT>
1

>  <PUBCHEM_BOND_DEF_STEREO_COUNT>
0

>  <PUBCHEM_BOND_UDEF_STEREO_COUNT>
0

>  <PUBCHEM_ISOTOPIC_ATOM_COUNT>
0

>  <PUBCHEM_COMPONENT_COUNT>
1

>  <PUBCHEM_CACTVS_TAUTO_COUNT>
210

>  <PUBCHEM_CONFORMER_ID>
00002B5700000001

>  <PUBCHEM_MMFF94_ENERGY>
59.3342

>  <PUBCHEM_FEATURE_SELFOVERLAP>
45.706

>  <PUBCHEM_SHAPE_FINGERPRINT>
10411042 1 18193841445173855490
10622 236 17915994985135910311
10912923 1 17704075101001671571
11471102 20 18408887360437869328
11796584 16 16443339837330513394
12107183 9 17839475392528231841
12236239 1 17846502547698529897
12403259 415 17603302657366984853
12553582 1 18339931424372457054
12616971 3 18131069316493766895
13134695 92 18410012139237220932
13140716 1 18123471854629113248
13167823 11 18060421313415870895
13533116 47 18272370884310252635
13544653 18 18335707096160682412
13760787 5 18342737412189800647
13862211 1 18337954490045258418
14386348 63 17749112205529776673
15196674 1 18337955597286782848
15788980 27 18343580716259971383
15848702 151 18412547578643290727
15961568 22 15937263350868473980
17349148 13 17988926669305114007
17357779 13 18114174216278649605
1813 80 18199764560881650630
18222031 100 18270960146673261878
200 152 18343863312365636145
20028762 73 18202280269220032478
20645477 70 18334012795965931346
21033648 29 17822561789989608741
21065201 7 16370725937299967259
21267235 1 18340495478264387710
21641784 216 17969243169744018604
221357 26 18260822679688181229
221490 88 18263088875588800699
22224240 67 18200583826743072040
22646028 1 17989486320797271083
23175994 123 18040722459093184965
23402539 116 18340206263213232338
23557571 272 17022900168525724213
23559900 14 17167860829567015978
23596394 208 17967245377883822595
2871803 45 18114182991128709714
314194 84 18342455937034105566
33824 294 18408885157446479880
345986 75 18058727992668531098
34797466 226 16588320391990523998
46194498 28 17531250612120952773
474 4 18126846225370418952
5104073 3 18340491066778996761
5281201 14 17822012003736182717
573450 72 17132116827560609323
602551 16 15267053796084210269
7471813 234 18060133236927129873
77492 1 17775010115379898801
7970288 3 18266178323070170050
9981440 41 17335605896518103553

>  <PUBCHEM_SHAPE_MULTIPOLES>
396.95
11.18
2.12
1.11
6.81
0.3
0.1
-3.77
0.54
-3.9
0.11
1.88
-0.09
-0.13

>  <PUBCHEM_SHAPE_SELFOVERLAP>
882.815

>  <PUBCHEM_SHAPE_VOLUME>
210.9

>  <PUBCHEM_COORDINATE_TYPE>
2
5
10

>  <Energy>
21.9437

$$$$
