124211
 OpenBabel06212614533D

 45 47  0  0  0  0  0  0  0  0999 V2000
   -1.3716   -1.6220    0.0628 O   0  0  0  0  0  0  0  0  0  0  0  0
    0.9607   -3.2747   -0.1042 O   0  0  0  0  0  0  0  0  0  0  0  0
    3.2901   -2.2958   -0.1543 O   0  0  0  0  0  0  0  0  0  0  0  0
    3.7828    0.4964   -0.0072 O   0  0  0  0  0  0  0  0  0  0  0  0
    1.5037    2.2209    0.3988 O   0  0  0  0  0  0  0  0  0  0  0  0
   -4.0819   -1.3371   -2.4024 O   0  0  0  0  0  0  0  0  0  0  0  0
   -1.1400    2.3817    0.2829 O   0  0  0  0  0  0  0  0  0  0  0  0
   -3.7450   -1.9763    2.4714 O   0  0  0  0  0  0  0  0  0  0  0  0
    0.0578    0.3226    0.1991 C   0  0  0  0  0  0  0  0  0  0  0  0
   -0.1224   -1.0564    0.0888 C   0  0  0  0  0  0  0  0  0  0  0  0
    0.9920   -1.8999   -0.0111 C   0  0  0  0  0  0  0  0  0  0  0  0
   -2.4924   -0.8354    0.1336 C   0  0  0  0  0  0  0  0  0  0  0  0
    1.3537    0.8755    0.1986 C   0  0  0  0  0  0  0  0  0  0  0  0
    2.3002   -1.3396   -0.0376 C   0  0  0  0  0  0  0  0  0  0  0  0
   -1.1637    1.1622    0.2694 C   0  0  0  0  0  0  0  0  0  0  0  0
    2.4894    0.0603    0.0531 C   0  0  0  0  0  0  0  0  0  0  0  0
   -3.7525   -1.5864    0.0545 C   0  0  0  0  0  0  0  0  0  0  0  0
   -2.4713    0.4875    0.2724 C   0  0  0  0  0  0  0  0  0  0  0  0
   -4.4453   -1.7850   -1.1574 C   0  0  0  0  0  0  0  0  0  0  0  0
   -4.3402   -2.0760    1.2397 C   0  0  0  0  0  0  0  0  0  0  0  0
   -5.7048   -2.4061   -1.1483 C   0  0  0  0  0  0  0  0  0  0  0  0
   -5.5936   -2.6881    1.2365 C   0  0  0  0  0  0  0  0  0  0  0  0
   -6.2810   -2.8498    0.0404 C   0  0  0  0  0  0  0  0  0  0  0  0
   -0.2667   -3.9822   -0.0074 C   0  0  0  0  0  0  0  0  0  0  0  0
    4.6612   -1.9326   -0.1288 C   0  0  0  0  0  0  0  0  0  0  0  0
    4.1462    1.8643    0.0335 C   0  0  0  0  0  0  0  0  0  0  0  0
   -2.7273   -1.5211   -2.7946 C   0  0  0  0  0  0  0  0  0  0  0  0
   -3.3620    1.1057    0.3458 H   0  0  0  0  0  0  0  0  0  0  0  0
   -6.2477   -2.5338   -2.0828 H   0  0  0  0  0  0  0  0  0  0  0  0
   -6.0359   -3.0269    2.1701 H   0  0  0  0  0  0  0  0  0  0  0  0
   -7.2649   -3.3118    0.0330 H   0  0  0  0  0  0  0  0  0  0  0  0
    1.6772    2.6276   -0.4675 H   0  0  0  0  0  0  0  0  0  0  0  0
   -0.7819   -3.7711    0.9357 H   0  0  0  0  0  0  0  0  0  0  0  0
   -0.9012   -3.7824   -0.8764 H   0  0  0  0  0  0  0  0  0  0  0  0
   -0.0425   -5.0527   -0.0163 H   0  0  0  0  0  0  0  0  0  0  0  0
    4.9315   -1.3600   -1.0219 H   0  0  0  0  0  0  0  0  0  0  0  0
    4.9266   -1.4113    0.7965 H   0  0  0  0  0  0  0  0  0  0  0  0
    5.2500   -2.8547   -0.1504 H   0  0  0  0  0  0  0  0  0  0  0  0
    3.8021    2.3884   -0.8631 H   0  0  0  0  0  0  0  0  0  0  0  0
    3.8149    2.3505    0.9543 H   0  0  0  0  0  0  0  0  0  0  0  0
    5.2407    1.9078    0.0282 H   0  0  0  0  0  0  0  0  0  0  0  0
   -2.8187   -1.7060    2.3633 H   0  0  0  0  0  0  0  0  0  0  0  0
   -2.1339   -0.6450   -2.5208 H   0  0  0  0  0  0  0  0  0  0  0  0
   -2.2907   -2.4425   -2.3975 H   0  0  0  0  0  0  0  0  0  0  0  0
   -2.7034   -1.5897   -3.8872 H   0  0  0  0  0  0  0  0  0  0  0  0
  1 10  1  0  0  0  0
  1 12  1  0  0  0  0
  2 11  1  0  0  0  0
  2 24  1  0  0  0  0
  3 14  1  0  0  0  0
  3 25  1  0  0  0  0
  4 16  1  0  0  0  0
  4 26  1  0  0  0  0
  5 13  1  0  0  0  0
  5 32  1  0  0  0  0
  6 19  1  0  0  0  0
  6 27  1  0  0  0  0
  7 15  2  0  0  0  0
  8 20  1  0  0  0  0
  8 42  1  0  0  0  0
  9 10  1  0  0  0  0
  9 13  2  0  0  0  0
  9 15  1  0  0  0  0
 10 11  2  0  0  0  0
 11 14  1  0  0  0  0
 12 17  1  0  0  0  0
 12 18  2  0  0  0  0
 13 16  1  0  0  0  0
 14 16  2  0  0  0  0
 15 18  1  0  0  0  0
 17 19  1  0  0  0  0
 17 20  2  0  0  0  0
 18 28  1  0  0  0  0
 19 21  2  0  0  0  0
 20 22  1  0  0  0  0
 21 23  1  0  0  0  0
 21 29  1  0  0  0  0
 22 23  2  0  0  0  0
 22 30  1  0  0  0  0
 23 31  1  0  0  0  0
 24 33  1  0  0  0  0
 24 34  1  0  0  0  0
 24 35  1  0  0  0  0
 25 36  1  0  0  0  0
 25 37  1  0  0  0  0
 25 38  1  0  0  0  0
 26 39  1  0  0  0  0
 26 40  1  0  0  0  0
 26 41  1  0  0  0  0
 27 43  1  0  0  0  0
 27 44  1  0  0  0  0
 27 45  1  0  0  0  0
M  END
>  <PUBCHEM_COMPOUND_CID>
124211

>  <PUBCHEM_CONFORMER_RMSD>
0.8

>  <PUBCHEM_CONFORMER_DIVERSEORDER>
4
11
8
1
6
7
5
2
10
3
9

>  <PUBCHEM_MMFF94_PARTIAL_CHARGES>
33
1 -0.16
10 0.08
11 0.08
12 0.05
13 0.08
14 0.08
15 0.47
16 0.08
17 0.03
18 -0.14
19 0.08
2 -0.36
20 0.08
21 -0.15
22 -0.15
23 -0.15
24 0.28
25 0.28
26 0.28
27 0.28
28 0.15
29 0.15
3 -0.36
30 0.15
31 0.15
32 0.45
4 -0.36
42 0.45
5 -0.53
6 -0.36
7 -0.57
8 -0.53
9 0.09

>  <PUBCHEM_EFFECTIVE_ROTOR_COUNT>
5

>  <PUBCHEM_PHARMACOPHORE_FEATURES>
11
1 1 acceptor
1 2 acceptor
1 3 acceptor
1 4 acceptor
1 5 donor
1 6 acceptor
1 7 acceptor
1 8 donor
6 1 9 10 12 15 18 rings
6 17 19 20 21 22 23 rings
6 9 10 11 13 14 16 rings

>  <PUBCHEM_HEAVY_ATOM_COUNT>
27

>  <PUBCHEM_ATOM_DEF_STEREO_COUNT>
0

>  <PUBCHEM_ATOM_UDEF_STEREO_COUNT>
0

>  <PUBCHEM_BOND_DEF_STEREO_COUNT>
0

>  <PUBCHEM_BOND_UDEF_STEREO_COUNT>
0

>  <PUBCHEM_ISOTOPIC_ATOM_COUNT>
0

>  <PUBCHEM_COMPONENT_COUNT>
1

>  <PUBCHEM_CACTVS_TAUTO_COUNT>
18

>  <PUBCHEM_CONFORMER_ID>
0001E53300000004

>  <PUBCHEM_MMFF94_ENERGY>
125.0496

>  <PUBCHEM_FEATURE_SELFOVERLAP>
55.869

>  <PUBCHEM_SHAPE_FINGERPRINT>
1100329 8 18410011070238620809
11370993 144 16630252415562829281
12236239 1 17603869970627532996
12363563 72 18341048631080785398
12553582 1 18334571364989238467
12616971 3 17603588525478054479
12633257 1 18411703196921444041
12788726 201 18335713688804230200
13140716 1 18338515361250060257
13402501 40 18060421292278781230
13583140 156 14979949307070613123
13726171 33 17975452231621645884
13782708 43 17775284954964895246
14022347 108 18410023130026609896
14115302 16 18040436603244284610
14294032 229 18117270360204585237
14386348 63 17917714578349894236
14790565 3 18265910064097868365
16752209 62 18333723624244367562
17349148 13 18259981574377359206
19141452 34 18060419127504201871
19319366 153 17458062690175767418
200 152 16805319960046820824
20028762 73 18271804687916157967
20511986 3 17748819718436774196
20600515 1 18412258471562826088
21033648 29 17131534090313028386
21033650 10 18194708998254729500
21133410 230 10936956901803079166
21267235 1 18335425646800820921
21781051 124 18115891679670261131
23366157 5 17898850420303221717
23402539 116 18341321254077125495
23557571 272 18059296465934609180
23559900 14 18343867740540449244
3004659 81 18113620084367638958
3178227 256 18335436660194376545
335352 9 18411133641740929461
338550 245 18115587028833541786
404807 14 14831101610716809765
474 4 16298966345879767940
5104073 3 18341331214354173017
59755656 215 18270394989053701855
602551 16 18412538795851759240
9709674 26 18124031488508650299

>  <PUBCHEM_SHAPE_MULTIPOLES>
508.69
11.24
2.76
1.82
1.75
0.02
-0.78
-2.53
-0.52
-3.57
0.14
3.03
-0.52
-0.59

>  <PUBCHEM_SHAPE_SELFOVERLAP>
1114.37

>  <PUBCHEM_SHAPE_VOLUME>
275.6

>  <PUBCHEM_COORDINATE_TYPE>
2
5
10

>  <Energy>
134.567

$$$$
