44423663
 OpenBabel06212614533D

 64 63  0  0  1  0  0  0  0  0999 V2000
   -0.7677   -0.2614    2.2047 O   0  0  0  0  0  0  0  0  0  0  0  0
   -2.5610   -1.0641    4.2195 O   0  0  0  0  0  0  0  0  0  0  0  0
   -4.8125   -1.0099    4.1242 O   0  0  0  0  0  0  0  0  0  0  0  0
   -2.7879   -0.7696    1.3259 N   0  0  0  0  0  0  0  0  0  0  0  0
    0.9008   -2.0810   -2.2838 C   0  0  0  0  0  0  0  0  0  0  0  0
    1.5479   -2.9728   -3.3414 C   0  0  0  0  0  0  0  0  0  0  0  0
   -3.3175   -9.3784   -5.0778 C   0  0  0  0  0  0  0  0  0  0  0  0
   -1.9446   -8.7451   -5.3095 C   0  0  0  0  0  0  0  0  0  0  0  0
    1.3355   -2.4626   -0.8682 C   0  0  0  0  0  0  0  0  0  0  0  0
    1.1898   -4.4566   -3.1698 C   0  0  0  0  0  0  0  0  0  0  0  0
   -3.2211  -10.9030   -5.0114 C   0  0  0  0  0  0  0  0  0  0  0  0
   -2.0572   -7.2279   -5.3833 C   0  0  0  0  0  0  0  0  0  0  0  0
    0.6938   -1.5934    0.2056 C   0  0  0  0  0  0  0  0  0  0  0  0
   -4.5940  -11.5391   -4.7837 C   0  0  0  0  0  0  0  0  0  0  0  0
   -0.3186   -4.7212   -3.2303 C   0  0  0  0  0  0  0  0  0  0  0  0
   -0.7046   -6.5650   -5.6163 C   0  0  0  0  0  0  0  0  0  0  0  0
   -0.8319   -1.7017    0.2412 C   0  0  0  0  0  0  0  0  0  0  0  0
   -4.5083  -13.0649   -4.7254 C   0  0  0  0  0  0  0  0  0  0  0  0
   -0.8264   -4.2812   -4.5749 C   0  0  0  0  0  0  0  0  0  0  0  0
   -0.9290   -5.0815   -5.6404 C   0  0  0  0  0  0  0  0  0  0  0  0
   -1.4205   -0.8324    1.3267 C   0  0  0  0  0  0  0  0  0  0  0  0
   -5.8768  -13.6906   -4.5009 C   0  0  0  0  0  0  0  0  0  0  0  0
   -3.5464    0.0169    2.2932 C   0  0  1  0  0  0  0  0  0  0  0  0
   -4.8874    0.3965    1.6825 C   0  0  0  0  0  0  0  0  0  0  0  0
   -3.7328   -0.7479    3.6148 C   0  0  0  0  0  0  0  0  0  0  0  0
   -0.1869   -2.1435   -2.3833 H   0  0  0  0  0  0  0  0  0  0  0  0
    1.1580   -1.0349   -2.4846 H   0  0  0  0  0  0  0  0  0  0  0  0
    1.2322   -2.6235   -4.3326 H   0  0  0  0  0  0  0  0  0  0  0  0
    2.6365   -2.8552   -3.3172 H   0  0  0  0  0  0  0  0  0  0  0  0
   -3.7471   -8.9938   -4.1442 H   0  0  0  0  0  0  0  0  0  0  0  0
   -3.9973   -9.0859   -5.8877 H   0  0  0  0  0  0  0  0  0  0  0  0
   -1.5096   -9.1231   -6.2413 H   0  0  0  0  0  0  0  0  0  0  0  0
   -1.2669   -9.0225   -4.4933 H   0  0  0  0  0  0  0  0  0  0  0  0
    2.4267   -2.3727   -0.7970 H   0  0  0  0  0  0  0  0  0  0  0  0
    1.0914   -3.5072   -0.6493 H   0  0  0  0  0  0  0  0  0  0  0  0
    1.6973   -5.0314   -3.9553 H   0  0  0  0  0  0  0  0  0  0  0  0
    1.5884   -4.8416   -2.2257 H   0  0  0  0  0  0  0  0  0  0  0  0
   -2.7898  -11.2812   -5.9460 H   0  0  0  0  0  0  0  0  0  0  0  0
   -2.5418  -11.1918   -4.2004 H   0  0  0  0  0  0  0  0  0  0  0  0
   -2.4951   -6.8548   -4.4472 H   0  0  0  0  0  0  0  0  0  0  0  0
   -2.7461   -6.9425   -6.1889 H   0  0  0  0  0  0  0  0  0  0  0  0
    0.9888   -0.5473    0.0517 H   0  0  0  0  0  0  0  0  0  0  0  0
    1.1018   -1.8930    1.1787 H   0  0  0  0  0  0  0  0  0  0  0  0
   -5.0225  -11.1602   -3.8479 H   0  0  0  0  0  0  0  0  0  0  0  0
   -5.2728  -11.2430   -5.5928 H   0  0  0  0  0  0  0  0  0  0  0  0
   -0.5119   -5.7823   -3.0405 H   0  0  0  0  0  0  0  0  0  0  0  0
   -0.8629   -4.1958   -2.4382 H   0  0  0  0  0  0  0  0  0  0  0  0
   -0.2516   -6.8857   -6.5588 H   0  0  0  0  0  0  0  0  0  0  0  0
    0.0050   -6.8580   -4.8302 H   0  0  0  0  0  0  0  0  0  0  0  0
   -1.1322   -2.7404    0.4262 H   0  0  0  0  0  0  0  0  0  0  0  0
   -1.2680   -1.3868   -0.7117 H   0  0  0  0  0  0  0  0  0  0  0  0
   -4.0877  -13.4503   -5.6615 H   0  0  0  0  0  0  0  0  0  0  0  0
   -3.8351  -13.3720   -3.9165 H   0  0  0  0  0  0  0  0  0  0  0  0
   -1.0580   -3.2235   -4.6896 H   0  0  0  0  0  0  0  0  0  0  0  0
   -1.2312   -4.6512   -6.5947 H   0  0  0  0  0  0  0  0  0  0  0  0
   -6.5670  -13.4235   -5.3077 H   0  0  0  0  0  0  0  0  0  0  0  0
   -5.7963  -14.7818   -4.4715 H   0  0  0  0  0  0  0  0  0  0  0  0
   -6.3114  -13.3571   -3.5530 H   0  0  0  0  0  0  0  0  0  0  0  0
   -3.2946   -1.3138    0.6442 H   0  0  0  0  0  0  0  0  0  0  0  0
   -2.9901    0.9307    2.5244 H   0  0  0  0  0  0  0  0  0  0  0  0
   -5.4938   -0.4940    1.4802 H   0  0  0  0  0  0  0  0  0  0  0  0
   -5.4563    1.0470    2.3543 H   0  0  0  0  0  0  0  0  0  0  0  0
   -4.7415    0.9226    0.7330 H   0  0  0  0  0  0  0  0  0  0  0  0
   -1.7757   -0.7295    3.7173 H   0  0  0  0  0  0  0  0  0  0  0  0
  1 21  2  0  0  0  0
  2 25  1  0  0  0  0
  2 64  1  0  0  0  0
  3 25  2  0  0  0  0
  4 21  1  0  0  0  0
  4 59  1  0  0  0  0
  5  6  1  0  0  0  0
  5  9  1  0  0  0  0
  5 26  1  0  0  0  0
  5 27  1  0  0  0  0
  6 10  1  0  0  0  0
  6 28  1  0  0  0  0
  6 29  1  0  0  0  0
  7  8  1  0  0  0  0
  7 11  1  0  0  0  0
  7 30  1  0  0  0  0
  7 31  1  0  0  0  0
  8 12  1  0  0  0  0
  8 32  1  0  0  0  0
  8 33  1  0  0  0  0
  9 13  1  0  0  0  0
  9 34  1  0  0  0  0
  9 35  1  0  0  0  0
 10 15  1  0  0  0  0
 10 36  1  0  0  0  0
 10 37  1  0  0  0  0
 11 14  1  0  0  0  0
 11 38  1  0  0  0  0
 11 39  1  0  0  0  0
 12 16  1  0  0  0  0
 12 40  1  0  0  0  0
 12 41  1  0  0  0  0
 13 17  1  0  0  0  0
 13 42  1  0  0  0  0
 13 43  1  0  0  0  0
 14 18  1  0  0  0  0
 14 44  1  0  0  0  0
 14 45  1  0  0  0  0
 15 19  1  0  0  0  0
 15 46  1  0  0  0  0
 15 47  1  0  0  0  0
 16 20  1  0  0  0  0
 16 48  1  0  0  0  0
 16 49  1  0  0  0  0
 17 21  1  0  0  0  0
 17 50  1  0  0  0  0
 17 51  1  0  0  0  0
 18 22  1  0  0  0  0
 18 52  1  0  0  0  0
 18 53  1  0  0  0  0
 19 20  2  0  0  0  0
 19 54  1  0  0  0  0
 20 55  1  0  0  0  0
 22 56  1  0  0  0  0
 22 57  1  0  0  0  0
 22 58  1  0  0  0  0
 23  4  1  0  0  0  0
 23 24  1  0  0  0  0
 23 25  1  0  0  0  0
 23 60  1  1  0  0  0
 24 61  1  0  0  0  0
 24 62  1  0  0  0  0
 24 63  1  0  0  0  0
M  END
>  <PUBCHEM_COMPOUND_CID>
44423663

>  <PUBCHEM_COMPOUND_CANONICALIZED>
1

>  <PUBCHEM_CACTVS_COMPLEXITY>
366

>  <PUBCHEM_CACTVS_HBOND_ACCEPTOR>
3

>  <PUBCHEM_CACTVS_HBOND_DONOR>
2

>  <PUBCHEM_CACTVS_ROTATABLE_BOND>
17

>  <PUBCHEM_CACTVS_SUBSKEYS>
AAADcfB6MAAAAAAAAAAAAAAAAAAAAAAAAAAAAAAAAAAAAAAAAAAAHgAQCAAACCjBgAQCCALAAgCIACHSGAAAAAAgAAAICIGIAAgCABIAgSAEQAAAlgCYAAMYiICAAAAAAAAAAAAAAAAAAAAAAAAAAAAAAA==

>  <PUBCHEM_IUPAC_OPENEYE_NAME>
(2S)-2-[[(Z)-octadec-9-enoyl]amino]propanoic acid

>  <PUBCHEM_IUPAC_CAS_NAME>
(2S)-2-[[(Z)-1-oxooctadec-9-enyl]amino]propanoic acid

>  <PUBCHEM_IUPAC_NAME_MARKUP>
(2<I>S</I>)-2-[[(<I>Z</I>)-octadec-9-enoyl]amino]propanoic acid

>  <PUBCHEM_IUPAC_NAME>
(2S)-2-[[(Z)-octadec-9-enoyl]amino]propanoic acid

>  <PUBCHEM_IUPAC_SYSTEMATIC_NAME>
(2S)-2-[[(Z)-octadec-9-enoyl]amino]propanoic acid

>  <PUBCHEM_IUPAC_TRADITIONAL_NAME>
(2S)-2-[[(Z)-octadec-9-enoyl]amino]propionic acid

>  <PUBCHEM_IUPAC_INCHI>
InChI=1S/C21H39NO3/c1-3-4-5-6-7-8-9-10-11-12-13-14-15-16-17-18-20(23)22-19(2)21(24)25/h10-11,19H,3-9,12-18H2,1-2H3,(H,22,23)(H,24,25)/b11-10-/t19-/m0/s1

>  <PUBCHEM_IUPAC_INCHIKEY>
CHQZBIVWDKADIA-GDWUOILNSA-N

>  <PUBCHEM_XLOGP3_AA>
7

>  <PUBCHEM_EXACT_MASS>
353.29299411

>  <PUBCHEM_MOLECULAR_FORMULA>
C21H39NO3

>  <PUBCHEM_MOLECULAR_WEIGHT>
353.5

>  <PUBCHEM_SMILES>
CCCCCCCC/C=C\CCCCCCCC(=O)N[C@@H](C)C(=O)O

>  <PUBCHEM_CONNECTIVITY_SMILES>
CCCCCCCCC=CCCCCCCCC(=O)NC(C)C(=O)O

>  <PUBCHEM_CACTVS_TPSA>
66.4

>  <PUBCHEM_MONOISOTOPIC_WEIGHT>
353.29299411

>  <PUBCHEM_TOTAL_CHARGE>
0

>  <PUBCHEM_HEAVY_ATOM_COUNT>
25

>  <PUBCHEM_ATOM_DEF_STEREO_COUNT>
1

>  <PUBCHEM_ATOM_UDEF_STEREO_COUNT>
0

>  <PUBCHEM_BOND_DEF_STEREO_COUNT>
1

>  <PUBCHEM_BOND_UDEF_STEREO_COUNT>
0

>  <PUBCHEM_ISOTOPIC_ATOM_COUNT>
0

>  <PUBCHEM_COMPONENT_COUNT>
1

>  <PUBCHEM_CACTVS_TAUTO_COUNT>
-1

>  <PUBCHEM_COORDINATE_TYPE>
1
5
255

>  <PUBCHEM_BONDANNOTATIONS>
23  4  5

>  <Energy>
-2.86703

$$$$
