156988680
 OpenBabel06212615193D

132131  0  0  1  0  0  0  0  0999 V2000
   -3.8913   -7.3474   14.3901 P   0  0  3  0  0  0  0  0  0  0  0  0
   -1.2730    0.4829    6.0255 O   0  0  0  0  0  0  0  0  0  0  0  0
   -1.6897    0.1902    8.8132 O   0  0  0  0  0  0  0  0  0  0  0  0
   -4.6180   -4.4369   10.8653 O   0  0  0  0  0  0  0  0  0  0  0  0
   -3.0150   -2.0610   11.2000 O   0  0  0  0  0  0  0  0  0  0  0  0
   -6.7474   -3.9426   11.5616 O   0  0  0  0  0  0  0  0  0  0  0  0
   -4.6600   -6.1978   13.4696 O   0  0  0  0  0  0  0  0  0  0  0  0
   -5.0820   -8.2934   14.9791 O   0  0  0  0  0  0  0  0  0  0  0  0
   -4.3296   -6.3360   15.7235 O   0  0  0  0  0  0  0  0  0  0  0  0
   -3.4990   -8.2526   13.1967 O   0  0  0  0  0  0  0  0  0  0  0  0
   -5.1278  -10.5772   12.6938 N   0  0  0  0  0  0  0  0  0  0  0  0
   -4.9285    6.8298   19.2733 C   0  0  0  0  0  0  0  0  0  0  0  0
   -5.7050    8.0660   19.7133 C   0  0  0  0  0  0  0  0  0  0  0  0
   -5.5843    6.1881   18.0560 C   0  0  0  0  0  0  0  0  0  0  0  0
   -5.0543    8.7119   20.9315 C   0  0  0  0  0  0  0  0  0  0  0  0
   -4.8132    4.9508   17.6164 C   0  0  0  0  0  0  0  0  0  0  0  0
   -5.8288    9.9521   21.3683 C   0  0  0  0  0  0  0  0  0  0  0  0
   -5.4668    4.3009   16.4003 C   0  0  0  0  0  0  0  0  0  0  0  0
   -1.4152   -1.8165    6.6177 C   0  0  0  0  0  0  0  0  0  0  0  0
   -2.1425   -3.0930    7.0665 C   0  0  0  0  0  0  0  0  0  0  0  0
   -5.1765   10.5989   22.5865 C   0  0  0  0  0  0  0  0  0  0  0  0
   -2.2007   -0.4855    6.5373 C   0  0  1  0  0  0  0  0  0  0  0  0
   -4.6820    3.0639   15.9806 C   0  0  0  0  0  0  0  0  0  0  0  0
   -3.2230   -3.5911    6.1087 C   0  0  0  0  0  0  0  0  0  0  0  0
   -3.7255   -5.0157    6.4428 C   0  0  0  0  0  0  0  0  0  0  0  0
   -5.9486   11.8405   23.0274 C   0  0  0  0  0  0  0  0  0  0  0  0
   -2.7744    0.0414    7.8831 C   0  0  2  0  0  0  0  0  0  0  0  0
   -5.2937    2.3933   14.7551 C   0  0  0  0  0  0  0  0  0  0  0  0
   -4.3827   -5.2253    7.8232 C   0  0  0  0  0  0  0  0  0  0  0  0
   -5.2935   12.4892   24.2450 C   0  0  0  0  0  0  0  0  0  0  0  0
   -4.4764    1.1626   14.3672 C   0  0  0  0  0  0  0  0  0  0  0  0
   -5.5927   -4.3218    8.0638 C   0  0  0  0  0  0  0  0  0  0  0  0
   -3.5023    1.4222    7.7720 C   0  0  0  0  0  0  0  0  0  0  0  0
   -6.0610   13.7316   24.6915 C   0  0  0  0  0  0  0  0  0  0  0  0
   -5.0709    0.4677   13.1498 C   0  0  0  0  0  0  0  0  0  0  0  0
   -6.4360   -4.6720    9.2944 C   0  0  0  0  0  0  0  0  0  0  0  0
   -4.3919    1.7006    8.9753 C   0  0  0  0  0  0  0  0  0  0  0  0
   -5.4117   14.3696   25.9083 C   0  0  0  0  0  0  0  0  0  0  0  0
   -4.6708    2.8340    9.6627 C   0  0  0  0  0  0  0  0  0  0  0  0
   -5.9513   -4.2875   10.6751 C   0  0  0  0  0  0  0  0  0  0  0  0
   -4.3246   -0.7944   12.8334 C   0  0  0  0  0  0  0  0  0  0  0  0
   -4.2367    4.2562    9.4592 C   0  0  0  0  0  0  0  0  0  0  0  0
   -3.5749    4.8650   10.7106 C   0  0  0  0  0  0  0  0  0  0  0  0
   -4.1252   -4.0844   12.1846 C   0  0  2  0  0  0  0  0  0  0  0  0
   -2.1652    4.3163   10.9452 C   0  0  0  0  0  0  0  0  0  0  0  0
   -2.8653   -3.1997   12.0383 C   0  0  0  0  0  0  0  0  0  0  0  0
   -3.6541   -0.9630   11.6856 C   0  0  0  0  0  0  0  0  0  0  0  0
   -3.6543   -5.3353   12.9264 C   0  0  0  0  0  0  0  0  0  0  0  0
   -1.4410    4.9262   12.1498 C   0  0  0  0  0  0  0  0  0  0  0  0
   -2.1077    4.6400   13.4847 C   0  0  0  0  0  0  0  0  0  0  0  0
   -6.1423   -8.9498   14.3165 C   0  0  0  0  0  0  0  0  0  0  0  0
   -5.9990   -9.4054   12.8583 C   0  0  0  0  0  0  0  0  0  0  0  0
   -4.8877    6.1057   20.0971 H   0  0  0  0  0  0  0  0  0  0  0  0
   -3.8940    7.1067   19.0353 H   0  0  0  0  0  0  0  0  0  0  0  0
   -5.7463    8.7884   18.8887 H   0  0  0  0  0  0  0  0  0  0  0  0
   -6.7388    7.7868   19.9510 H   0  0  0  0  0  0  0  0  0  0  0  0
   -5.6232    6.9123   17.2319 H   0  0  0  0  0  0  0  0  0  0  0  0
   -6.6184    5.9139   18.2952 H   0  0  0  0  0  0  0  0  0  0  0  0
   -5.0172    7.9894   21.7559 H   0  0  0  0  0  0  0  0  0  0  0  0
   -4.0190    8.9864   20.6948 H   0  0  0  0  0  0  0  0  0  0  0  0
   -4.7705    4.2298   18.4435 H   0  0  0  0  0  0  0  0  0  0  0  0
   -3.7783    5.2260   17.3769 H   0  0  0  0  0  0  0  0  0  0  0  0
   -5.8665   10.6730   20.5422 H   0  0  0  0  0  0  0  0  0  0  0  0
   -6.8639    9.6762   21.6042 H   0  0  0  0  0  0  0  0  0  0  0  0
   -5.5041    5.0182   15.5716 H   0  0  0  0  0  0  0  0  0  0  0  0
   -6.5014    4.0226   16.6374 H   0  0  0  0  0  0  0  0  0  0  0  0
   -0.5534   -1.6760    7.2845 H   0  0  0  0  0  0  0  0  0  0  0  0
   -0.9595   -2.0039    5.6345 H   0  0  0  0  0  0  0  0  0  0  0  0
   -2.5553   -2.9563    8.0721 H   0  0  0  0  0  0  0  0  0  0  0  0
   -1.3805   -3.8794    7.1481 H   0  0  0  0  0  0  0  0  0  0  0  0
   -5.1363    9.8751   23.4098 H   0  0  0  0  0  0  0  0  0  0  0  0
   -4.1420   10.8735   22.3467 H   0  0  0  0  0  0  0  0  0  0  0  0
   -3.0033   -0.5769    5.7983 H   0  0  0  0  0  0  0  0  0  0  0  0
   -4.6512    2.3500   16.8121 H   0  0  0  0  0  0  0  0  0  0  0  0
   -3.6446    3.3477   15.7643 H   0  0  0  0  0  0  0  0  0  0  0  0
   -2.8136   -3.6257    5.0904 H   0  0  0  0  0  0  0  0  0  0  0  0
   -4.0661   -2.8951    6.0813 H   0  0  0  0  0  0  0  0  0  0  0  0
   -2.8817   -5.7132    6.3599 H   0  0  0  0  0  0  0  0  0  0  0  0
   -4.4393   -5.3184    5.6663 H   0  0  0  0  0  0  0  0  0  0  0  0
   -5.9884   12.5609   22.2014 H   0  0  0  0  0  0  0  0  0  0  0  0
   -6.9830   11.5651   23.2668 H   0  0  0  0  0  0  0  0  0  0  0  0
   -3.4710   -0.7051    8.2828 H   0  0  0  0  0  0  0  0  0  0  0  0
   -5.3257    3.1003   13.9153 H   0  0  0  0  0  0  0  0  0  0  0  0
   -6.3281    2.1003   14.9714 H   0  0  0  0  0  0  0  0  0  0  0  0
   -3.6323   -5.0808    8.6067 H   0  0  0  0  0  0  0  0  0  0  0  0
   -4.6976   -6.2745    7.8830 H   0  0  0  0  0  0  0  0  0  0  0  0
   -5.2525   11.7660   25.0686 H   0  0  0  0  0  0  0  0  0  0  0  0
   -4.2589   12.7628   24.0039 H   0  0  0  0  0  0  0  0  0  0  0  0
   -4.4430    0.4668   15.2159 H   0  0  0  0  0  0  0  0  0  0  0  0
   -3.4427    1.4563   14.1544 H   0  0  0  0  0  0  0  0  0  0  0  0
   -6.2544   -4.4259    7.1916 H   0  0  0  0  0  0  0  0  0  0  0  0
   -5.2831   -3.2743    8.1063 H   0  0  0  0  0  0  0  0  0  0  0  0
   -2.7751    2.2320    7.6466 H   0  0  0  0  0  0  0  0  0  0  0  0
   -4.1553    1.4044    6.8906 H   0  0  0  0  0  0  0  0  0  0  0  0
   -6.0959   14.4622   23.8749 H   0  0  0  0  0  0  0  0  0  0  0  0
   -7.0964   13.4642   24.9327 H   0  0  0  0  0  0  0  0  0  0  0  0
   -5.0632    1.1539   12.2954 H   0  0  0  0  0  0  0  0  0  0  0  0
   -6.1199    0.2089   13.3359 H   0  0  0  0  0  0  0  0  0  0  0  0
   -6.6979   -5.7336    9.3071 H   0  0  0  0  0  0  0  0  0  0  0  0
   -7.3759   -4.1135    9.1706 H   0  0  0  0  0  0  0  0  0  0  0  0
   -0.6053    0.6164    6.7314 H   0  0  0  0  0  0  0  0  0  0  0  0
   -4.9146    0.8093    9.3311 H   0  0  0  0  0  0  0  0  0  0  0  0
   -1.4390   -0.7022    9.1109 H   0  0  0  0  0  0  0  0  0  0  0  0
   -4.3808   14.6669   25.6908 H   0  0  0  0  0  0  0  0  0  0  0  0
   -5.9673   15.2623   26.2114 H   0  0  0  0  0  0  0  0  0  0  0  0
   -5.3973   13.6740   26.7535 H   0  0  0  0  0  0  0  0  0  0  0  0
   -5.3605    2.7156   10.4955 H   0  0  0  0  0  0  0  0  0  0  0  0
   -4.4053   -1.5792   13.5754 H   0  0  0  0  0  0  0  0  0  0  0  0
   -3.5932    4.3753    8.5828 H   0  0  0  0  0  0  0  0  0  0  0  0
   -5.1481    4.8355    9.2604 H   0  0  0  0  0  0  0  0  0  0  0  0
   -3.5211    5.9549   10.5890 H   0  0  0  0  0  0  0  0  0  0  0  0
   -4.2074    4.6828   11.5885 H   0  0  0  0  0  0  0  0  0  0  0  0
   -4.8890   -3.5688   12.7726 H   0  0  0  0  0  0  0  0  0  0  0  0
   -2.2045    3.2288   11.0639 H   0  0  0  0  0  0  0  0  0  0  0  0
   -1.5622    4.5189   10.0520 H   0  0  0  0  0  0  0  0  0  0  0  0
   -2.4716   -2.9011   13.0225 H   0  0  0  0  0  0  0  0  0  0  0  0
   -2.0733   -3.7962   11.5694 H   0  0  0  0  0  0  0  0  0  0  0  0
   -3.5633   -0.1655   10.9587 H   0  0  0  0  0  0  0  0  0  0  0  0
   -3.0296   -5.0197   13.7722 H   0  0  0  0  0  0  0  0  0  0  0  0
   -3.0359   -5.9336   12.2475 H   0  0  0  0  0  0  0  0  0  0  0  0
   -0.4257    4.5116   12.1785 H   0  0  0  0  0  0  0  0  0  0  0  0
   -1.3355    6.0092   12.0203 H   0  0  0  0  0  0  0  0  0  0  0  0
   -2.2560    3.5653   13.6260 H   0  0  0  0  0  0  0  0  0  0  0  0
   -1.4774    5.0013   14.3058 H   0  0  0  0  0  0  0  0  0  0  0  0
   -3.0765    5.1403   13.5699 H   0  0  0  0  0  0  0  0  0  0  0  0
   -5.3066   -6.3357   15.7236 H   0  0  0  0  0  0  0  0  0  0  0  0
   -6.3807   -9.8292   14.9261 H   0  0  0  0  0  0  0  0  0  0  0  0
   -7.0160   -8.2886   14.3873 H   0  0  0  0  0  0  0  0  0  0  0  0
   -6.9895   -9.6993   12.4938 H   0  0  0  0  0  0  0  0  0  0  0  0
   -5.6556   -8.5888   12.2194 H   0  0  0  0  0  0  0  0  0  0  0  0
   -4.9061  -10.6743   11.7026 H   0  0  0  0  0  0  0  0  0  0  0  0
   -4.2242  -10.3406   13.1262 H   0  0  0  0  0  0  0  0  0  0  0  0
  1  7  1  0  0  0  0
  1  8  1  0  0  0  0
  1  9  1  0  0  0  0
  1 10  2  0  0  0  0
  2101  1  0  0  0  0
  3103  1  0  0  0  0
  4 40  1  0  0  0  0
  5 46  1  0  0  0  0
  5 47  1  0  0  0  0
  6 40  2  0  0  0  0
  7 48  1  0  0  0  0
  8 51  1  0  0  0  0
  9126  1  0  0  0  0
 11 52  1  0  0  0  0
 11131  1  0  0  0  0
 11132  1  0  0  0  0
 12 13  1  0  0  0  0
 12 14  1  0  0  0  0
 12 53  1  0  0  0  0
 12 54  1  0  0  0  0
 13 15  1  0  0  0  0
 13 55  1  0  0  0  0
 13 56  1  0  0  0  0
 14 16  1  0  0  0  0
 14 57  1  0  0  0  0
 14 58  1  0  0  0  0
 15 17  1  0  0  0  0
 15 59  1  0  0  0  0
 15 60  1  0  0  0  0
 16 18  1  0  0  0  0
 16 61  1  0  0  0  0
 16 62  1  0  0  0  0
 17 21  1  0  0  0  0
 17 63  1  0  0  0  0
 17 64  1  0  0  0  0
 18 23  1  0  0  0  0
 18 65  1  0  0  0  0
 18 66  1  0  0  0  0
 19 20  1  0  0  0  0
 19 67  1  0  0  0  0
 19 68  1  0  0  0  0
 20 24  1  0  0  0  0
 20 69  1  0  0  0  0
 20 70  1  0  0  0  0
 21 26  1  0  0  0  0
 21 71  1  0  0  0  0
 21 72  1  0  0  0  0
 22 27  1  0  0  0  0
 22 73  1  6  0  0  0
 22 19  1  0  0  0  0
 22  2  1  0  0  0  0
 23 28  1  0  0  0  0
 23 74  1  0  0  0  0
 23 75  1  0  0  0  0
 24 25  1  0  0  0  0
 24 76  1  0  0  0  0
 24 77  1  0  0  0  0
 25 29  1  0  0  0  0
 25 78  1  0  0  0  0
 25 79  1  0  0  0  0
 26 30  1  0  0  0  0
 26 80  1  0  0  0  0
 26 81  1  0  0  0  0
 27  3  1  0  0  0  0
 27 33  1  0  0  0  0
 27 82  1  1  0  0  0
 28 31  1  0  0  0  0
 28 83  1  0  0  0  0
 28 84  1  0  0  0  0
 29 32  1  0  0  0  0
 29 85  1  0  0  0  0
 29 86  1  0  0  0  0
 30 34  1  0  0  0  0
 30 87  1  0  0  0  0
 30 88  1  0  0  0  0
 31 35  1  0  0  0  0
 31 89  1  0  0  0  0
 31 90  1  0  0  0  0
 32 36  1  0  0  0  0
 32 91  1  0  0  0  0
 32 92  1  0  0  0  0
 33 37  1  0  0  0  0
 33 93  1  0  0  0  0
 33 94  1  0  0  0  0
 34 38  1  0  0  0  0
 34 95  1  0  0  0  0
 34 96  1  0  0  0  0
 35 41  1  0  0  0  0
 35 97  1  0  0  0  0
 35 98  1  0  0  0  0
 36 40  1  0  0  0  0
 36 99  1  0  0  0  0
 36100  1  0  0  0  0
 37 39  2  0  0  0  0
 37102  1  0  0  0  0
 38104  1  0  0  0  0
 38105  1  0  0  0  0
 38106  1  0  0  0  0
 39 42  1  0  0  0  0
 39107  1  0  0  0  0
 41 47  2  0  0  0  0
 41108  1  0  0  0  0
 42 43  1  0  0  0  0
 42109  1  0  0  0  0
 42110  1  0  0  0  0
 43 45  1  0  0  0  0
 43111  1  0  0  0  0
 43112  1  0  0  0  0
 44 48  1  0  0  0  0
 44113  1  1  0  0  0
 44 46  1  0  0  0  0
 44  4  1  0  0  0  0
 45 49  1  0  0  0  0
 45114  1  0  0  0  0
 45115  1  0  0  0  0
 46116  1  0  0  0  0
 46117  1  0  0  0  0
 47118  1  0  0  0  0
 48119  1  0  0  0  0
 48120  1  0  0  0  0
 49 50  1  0  0  0  0
 49121  1  0  0  0  0
 49122  1  0  0  0  0
 50123  1  0  0  0  0
 50124  1  0  0  0  0
 50125  1  0  0  0  0
 51 52  1  0  0  0  0
 51127  1  0  0  0  0
 51128  1  0  0  0  0
 52129  1  0  0  0  0
 52130  1  0  0  0  0
M  END
>  <PUBCHEM_COMPOUND_CID>
156988680

>  <PUBCHEM_COMPOUND_CANONICALIZED>
1

>  <PUBCHEM_CACTVS_COMPLEXITY>
888

>  <PUBCHEM_CACTVS_HBOND_ACCEPTOR>
10

>  <PUBCHEM_CACTVS_HBOND_DONOR>
4

>  <PUBCHEM_CACTVS_ROTATABLE_BOND>
41

>  <PUBCHEM_CACTVS_SUBSKEYS>
AAADcfB+PAIAAAAAAAAAAAAAAAAAAAAAAAAAAAAAAAAAAAAAAAAAHgAQCCAACBThgAYCCABABxCIQCDSCIAACAAgIAAICIEAAAgDEBIAAQACQAAF0AALAAOIyKCAAAAAAAAAAAAAAAAAAAAAAAAAAAAAAA==

>  <PUBCHEM_IUPAC_OPENEYE_NAME>
[(1R)-1-[[2-aminoethoxy(hydroxy)phosphoryl]oxymethyl]-2-[(E)-octadec-1-enoxy]ethyl] (Z,9S,10S)-9,10-dihydroxyoctadec-12-enoate

>  <PUBCHEM_IUPAC_CAS_NAME>
(Z,9S,10S)-9,10-dihydroxy-12-octadecenoic acid [(2R)-1-[2-aminoethoxy(hydroxy)phosphoryl]oxy-3-[(E)-octadec-1-enoxy]propan-2-yl] ester

>  <PUBCHEM_IUPAC_NAME_MARKUP>
[(2<I>R</I>)-1-[2-aminoethoxy(hydroxy)phosphoryl]oxy-3-[(<I>E</I>)-octadec-1-enoxy]propan-2-yl] (<I>Z</I>,9<I>S</I>,10<I>S</I>)-9,10-dihydroxyoctadec-12-enoate

>  <PUBCHEM_IUPAC_NAME>
[(2R)-1-[2-aminoethoxy(hydroxy)phosphoryl]oxy-3-[(E)-octadec-1-enoxy]propan-2-yl] (Z,9S,10S)-9,10-dihydroxyoctadec-12-enoate

>  <PUBCHEM_IUPAC_SYSTEMATIC_NAME>
[(2R)-1-[2-azanylethoxy(oxidanyl)phosphoryl]oxy-3-[(E)-octadec-1-enoxy]propan-2-yl] (Z,9S,10S)-9,10-bis(oxidanyl)octadec-12-enoate

>  <PUBCHEM_IUPAC_TRADITIONAL_NAME>
(Z,9S,10S)-9,10-dihydroxyoctadec-12-enoic acid [(1R)-1-[[2-aminoethoxy(hydroxy)phosphoryl]oxymethyl]-2-[(E)-octadec-1-enoxy]ethyl] ester

>  <PUBCHEM_IUPAC_INCHI>
InChI=1S/C41H80NO9P/c1-3-5-7-9-11-12-13-14-15-16-17-18-19-20-25-29-34-48-36-38(37-50-52(46,47)49-35-33-42)51-41(45)32-28-24-21-23-27-31-40(44)39(43)30-26-22-10-8-6-4-2/h22,26,29,34,38-40,43-44H,3-21,23-25,27-28,30-33,35-37,42H2,1-2H3,(H,46,47)/b26-22-,34-29+/t38-,39+,40+/m1/s1

>  <PUBCHEM_IUPAC_INCHIKEY>
HLQPNCNJEMONNP-GNYAANRMSA-N

>  <PUBCHEM_XLOGP3_AA>
9.4

>  <PUBCHEM_EXACT_MASS>
761.55707013

>  <PUBCHEM_MOLECULAR_FORMULA>
C41H80NO9P

>  <PUBCHEM_MOLECULAR_WEIGHT>
762.0

>  <PUBCHEM_SMILES>
CCCCCCCCCCCCCCCC/C=C/OC[C@H](COP(=O)(O)OCCN)OC(=O)CCCCCCC[C@@H]([C@H](C/C=C\CCCCC)O)O

>  <PUBCHEM_CONNECTIVITY_SMILES>
CCCCCCCCCCCCCCCCC=COCC(COP(=O)(O)OCCN)OC(=O)CCCCCCCC(C(CC=CCCCCC)O)O

>  <PUBCHEM_CACTVS_TPSA>
158

>  <PUBCHEM_MONOISOTOPIC_WEIGHT>
761.55707013

>  <PUBCHEM_TOTAL_CHARGE>
0

>  <PUBCHEM_HEAVY_ATOM_COUNT>
52

>  <PUBCHEM_ATOM_DEF_STEREO_COUNT>
3

>  <PUBCHEM_ATOM_UDEF_STEREO_COUNT>
0

>  <PUBCHEM_BOND_DEF_STEREO_COUNT>
2

>  <PUBCHEM_BOND_UDEF_STEREO_COUNT>
0

>  <PUBCHEM_ISOTOPIC_ATOM_COUNT>
0

>  <PUBCHEM_COMPONENT_COUNT>
1

>  <PUBCHEM_CACTVS_TAUTO_COUNT>
-1

>  <PUBCHEM_COORDINATE_TYPE>
1
5
255

>  <PUBCHEM_BONDANNOTATIONS>
22  2  6
27  3  6
44  4  5

>  <Energy>
659.179

$$$$
