16061067
 OpenBabel06212615193D

 54 53  0  0  1  0  0  0  0  0999 V2000
    3.8953    0.4171    1.7077 O   0  0  0  0  0  0  0  0  0  0  0  0
    6.5943    0.3561    2.4421 O   0  0  0  0  0  0  0  0  0  0  0  0
    8.6556   -6.2435   13.6608 O   0  0  0  0  0  0  0  0  0  0  0  0
    7.6970   -4.2127   13.7772 O   0  0  0  0  0  0  0  0  0  0  0  0
    4.9674   -3.6296    7.7367 C   0  0  0  0  0  0  0  0  0  0  0  0
    5.4502   -3.3796    9.1674 C   0  0  0  0  0  0  0  0  0  0  0  0
    4.1620   -2.4390    7.2071 C   0  0  0  0  0  0  0  0  0  0  0  0
    6.2372   -4.5716    9.7192 C   0  0  0  0  0  0  0  0  0  0  0  0
    4.4706   -0.8400    2.1115 C   0  0  1  0  0  0  0  0  0  0  0  0
    3.6004   -2.7171    5.8090 C   0  0  0  0  0  0  0  0  0  0  0  0
    5.6872   -0.5846    3.0360 C   0  0  1  0  0  0  0  0  0  0  0  0
    6.6983   -4.3099   11.1545 C   0  0  0  0  0  0  0  0  0  0  0  0
    3.3955   -1.7432    2.7553 C   0  0  0  0  0  0  0  0  0  0  0  0
    6.4826   -1.8573    3.3833 C   0  0  0  0  0  0  0  0  0  0  0  0
    2.8594   -1.5295    5.2600 C   0  0  0  0  0  0  0  0  0  0  0  0
    2.7717   -1.1250    3.9823 C   0  0  0  0  0  0  0  0  0  0  0  0
    7.4824   -5.4910   11.7259 C   0  0  0  0  0  0  0  0  0  0  0  0
    7.0085   -2.6057    2.1874 C   0  0  0  0  0  0  0  0  0  0  0  0
    7.9355   -5.2182   13.1453 C   0  0  0  0  0  0  0  0  0  0  0  0
    7.5769   -3.8208    2.2045 C   0  0  0  0  0  0  0  0  0  0  0  0
    7.8566   -4.6682    3.4112 C   0  0  0  0  0  0  0  0  0  0  0  0
    7.2039   -6.0360    3.2899 C   0  0  0  0  0  0  0  0  0  0  0  0
    4.3474   -4.5339    7.7114 H   0  0  0  0  0  0  0  0  0  0  0  0
    5.8291   -3.8092    7.0822 H   0  0  0  0  0  0  0  0  0  0  0  0
    6.0801   -2.4820    9.1903 H   0  0  0  0  0  0  0  0  0  0  0  0
    4.5860   -3.1833    9.8141 H   0  0  0  0  0  0  0  0  0  0  0  0
    4.8005   -1.5466    7.1868 H   0  0  0  0  0  0  0  0  0  0  0  0
    3.3325   -2.2260    7.8933 H   0  0  0  0  0  0  0  0  0  0  0  0
    5.6093   -5.4704    9.6939 H   0  0  0  0  0  0  0  0  0  0  0  0
    7.1077   -4.7655    9.0811 H   0  0  0  0  0  0  0  0  0  0  0  0
    4.7999   -1.3041    1.1758 H   0  0  0  0  0  0  0  0  0  0  0  0
    2.9137   -3.5688    5.8524 H   0  0  0  0  0  0  0  0  0  0  0  0
    4.4184   -3.0136    5.1574 H   0  0  0  0  0  0  0  0  0  0  0  0
    5.3492   -0.1100    3.9642 H   0  0  0  0  0  0  0  0  0  0  0  0
    7.3219   -3.4080   11.1821 H   0  0  0  0  0  0  0  0  0  0  0  0
    5.8266   -4.1086   11.7898 H   0  0  0  0  0  0  0  0  0  0  0  0
    2.5882   -1.9094    2.0303 H   0  0  0  0  0  0  0  0  0  0  0  0
    3.8099   -2.7326    2.9738 H   0  0  0  0  0  0  0  0  0  0  0  0
    7.3232   -1.5805    4.0299 H   0  0  0  0  0  0  0  0  0  0  0  0
    5.8487   -2.5356    3.9476 H   0  0  0  0  0  0  0  0  0  0  0  0
    2.3146   -0.9407    5.9993 H   0  0  0  0  0  0  0  0  0  0  0  0
    2.1509   -0.2520    3.7824 H   0  0  0  0  0  0  0  0  0  0  0  0
    6.8494   -6.3858   11.7327 H   0  0  0  0  0  0  0  0  0  0  0  0
    8.3691   -5.6797   11.1112 H   0  0  0  0  0  0  0  0  0  0  0  0
    6.9222   -2.1047    1.2245 H   0  0  0  0  0  0  0  0  0  0  0  0
    3.5914    0.8787    2.5064 H   0  0  0  0  0  0  0  0  0  0  0  0
    6.0876    1.1718    2.2827 H   0  0  0  0  0  0  0  0  0  0  0  0
    7.9064   -4.2315    1.2510 H   0  0  0  0  0  0  0  0  0  0  0  0
    8.9421   -4.7940    3.4985 H   0  0  0  0  0  0  0  0  0  0  0  0
    7.5188   -4.1882    4.3355 H   0  0  0  0  0  0  0  0  0  0  0  0
    7.5880   -6.5802    2.4201 H   0  0  0  0  0  0  0  0  0  0  0  0
    7.4145   -6.6360    4.1810 H   0  0  0  0  0  0  0  0  0  0  0  0
    6.1172   -5.9496    3.1864 H   0  0  0  0  0  0  0  0  0  0  0  0
    8.7732   -6.9950   13.0527 H   0  0  0  0  0  0  0  0  0  0  0  0
  1  9  1  0  0  0  0
  1 46  1  0  0  0  0
  2 47  1  0  0  0  0
  3 19  1  0  0  0  0
  3 54  1  0  0  0  0
  4 19  2  0  0  0  0
  5  6  1  0  0  0  0
  5  7  1  0  0  0  0
  5 23  1  0  0  0  0
  5 24  1  0  0  0  0
  6  8  1  0  0  0  0
  6 25  1  0  0  0  0
  6 26  1  0  0  0  0
  7 10  1  0  0  0  0
  7 27  1  0  0  0  0
  7 28  1  0  0  0  0
  8 12  1  0  0  0  0
  8 29  1  0  0  0  0
  8 30  1  0  0  0  0
  9 13  1  0  0  0  0
  9 31  1  6  0  0  0
 10 15  1  0  0  0  0
 10 32  1  0  0  0  0
 10 33  1  0  0  0  0
 11 14  1  0  0  0  0
 11 34  1  1  0  0  0
 11  9  1  0  0  0  0
 11  2  1  0  0  0  0
 12 17  1  0  0  0  0
 12 35  1  0  0  0  0
 12 36  1  0  0  0  0
 13 16  1  0  0  0  0
 13 37  1  0  0  0  0
 13 38  1  0  0  0  0
 14 18  1  0  0  0  0
 14 39  1  0  0  0  0
 14 40  1  0  0  0  0
 15 16  2  0  0  0  0
 15 41  1  0  0  0  0
 16 42  1  0  0  0  0
 17 19  1  0  0  0  0
 17 43  1  0  0  0  0
 17 44  1  0  0  0  0
 18 20  2  0  0  0  0
 18 45  1  0  0  0  0
 20 21  1  0  0  0  0
 20 48  1  0  0  0  0
 21 22  1  0  0  0  0
 21 49  1  0  0  0  0
 21 50  1  0  0  0  0
 22 51  1  0  0  0  0
 22 52  1  0  0  0  0
 22 53  1  0  0  0  0
M  END
>  <PUBCHEM_COMPOUND_CID>
16061067

>  <PUBCHEM_CONFORMER_RMSD>
1.4

>  <PUBCHEM_CONFORMER_DIVERSEORDER>
2
105
8
29
45
24
43
5
94
22
47
112
53
68
161
30
49
97
38
119
23
159
13
83
137
127
60
110
93
109
124
174
92
56
113
150
25
41
19
66
72
50
155
136
79
70
126
102
98
3
156
130
133
123
28
143
114
26
58
34
138
163
55
65
141
140
90
154
146
87
170
149
74
82
75
135
42
167
99
86
108
129
122
145
78
7
11
40
6
46
107
37
61
51
144
27
36
10
168
117
100
164
152
148
54
85
131
44
147
142
35
125
169
116
59
173
160
151
104
89
171
115
15
103
172
16
165
33
101
166
88
134
63
106
153
95
4
118
111
76
175
62
80
14
69
21
48
81
77
20
52
1
162
139
67
57
12
96
120
39
31
157
71
9
132
91
128
121
73
84
158
32
18
64
17

>  <PUBCHEM_MMFF94_PARTIAL_CHARGES>
23
1 -0.68
10 0.14
11 0.28
13 0.14
14 0.14
15 -0.29
16 -0.29
17 0.06
18 -0.29
19 0.66
2 -0.68
20 -0.29
21 0.14
3 -0.65
4 -0.57
41 0.15
42 0.15
45 0.15
46 0.4
47 0.4
48 0.15
54 0.5
9 0.28

>  <PUBCHEM_EFFECTIVE_ROTOR_COUNT>
14

>  <PUBCHEM_PHARMACOPHORE_FEATURES>
8
1 1 acceptor
1 1 donor
1 2 acceptor
1 2 donor
1 22 hydrophobe
1 3 acceptor
1 4 acceptor
3 3 4 19 anion

>  <PUBCHEM_HEAVY_ATOM_COUNT>
22

>  <PUBCHEM_ATOM_DEF_STEREO_COUNT>
0

>  <PUBCHEM_ATOM_UDEF_STEREO_COUNT>
2

>  <PUBCHEM_BOND_DEF_STEREO_COUNT>
2

>  <PUBCHEM_BOND_UDEF_STEREO_COUNT>
0

>  <PUBCHEM_ISOTOPIC_ATOM_COUNT>
0

>  <PUBCHEM_COMPONENT_COUNT>
1

>  <PUBCHEM_CACTVS_TAUTO_COUNT>
1

>  <PUBCHEM_CONFORMER_ID>
00F5128B00000002

>  <PUBCHEM_MMFF94_ENERGY>
17.9571

>  <PUBCHEM_FEATURE_SELFOVERLAP>
40.655

>  <PUBCHEM_SHAPE_FINGERPRINT>
10708813 3 18341338880696910649
12038231 1 17977944918749275300
13122387 1 18338516464144116329
14466204 15 17905880737091306712
14931854 50 18339361992875459028
14940714 1 9346644332758962300
17977149 70 17263017852987277342
19930381 70 18337103592066369075
20398071 114 17760077815028863214
20621476 13 18337663243110276445
20621476 7 18195539090583667129
20765182 20 16899649029277581992
9543594 6 18268424625567380848

>  <PUBCHEM_SHAPE_MULTIPOLES>
429.27
7.74
6.85
1.24
1.97
2.66
-0.07
1.33
1.01
-1.03
-2.03
0.22
-0.15
-1.41

>  <PUBCHEM_SHAPE_SELFOVERLAP>
807.142

>  <PUBCHEM_SHAPE_VOLUME>
265

>  <PUBCHEM_COORDINATE_TYPE>
2
5
10

>  <Energy>
42.3778

$$$$
